##TITLE=IOC-HACK-Hunscha
Cyclopropylmethylalkohol    12mg
PROTON.AUT CDCl3 {D:\Bruker\TopSpin} AVIII600 1
##JCAMPDX= 6.0         $$ Bruker NMR JCAMP-DX V2.0
##DATA TYPE= NMR SPECTRUM
##DATA CLASS= XYDATA
##ORIGIN= Bruker BioSpin GmbH
##OWNER= AVIII600
##LONG DATE= 2024/10/28 11:49:04+0000
$$ TopSpin 4.4.0
$$ 2025-01-17 17:45:09.978 +0100  Tobias@NMR09
$$ Compression mode = fixed
##.OBSERVE FREQUENCY= 600.1337058
##.OBSERVE NUCLEUS= ^1H
##.ACQUISITION MODE= SIMULTANEOUS (DQD)
##.ACQUISITION SCHEME= undefined
##.AVERAGES= 16
##.DIGITISER RES= 22
##SPECTROMETER/DATA SYSTEM= spect
##.PULSE SEQUENCE= zg30
##.SOLVENT NAME= CDCl3
##.SHIFT REFERENCE= INTERNAL, CDCl3, 1, 15.97338
##AUDIT TRAIL= $$ (NUMBER, WHEN, WHO, WHERE, PROCESS, VERSION, WHAT)
$$ ##TITLE= Audit trail, TopSpin 3.6.4
$$ ##JCAMPDX= 5.01
$$ ##ORIGIN= Bruker BioSpin GmbH
$$ ##OWNER= AVIII600
$$ $$ D:/Bruker/Topspin/data/AVIII600/nmr/20241028-AVIII600/170/pdata/1/auditp.txt
$$ ##AUDIT TRAIL=  $$ (NUMBER, WHEN, WHO, WHERE, PROCESS, VERSION, WHAT)
(   1,<2024-10-28 12:49:04.421 +0100>,<AVIII600>,<AV3600>,<go4>,<TopSpin 3.6.4>,
      <created by zg on data set with UUID '776abec0-9522-11ef-b82e-3417eba89713'
       started at 2024-10-28 12:47:53.762 +0100,
       POWCHK enabled, PULCHK disabled,
       completed at 2024-10-28 12:49:04.406 +0100
$$ 
       configuration hash MD5:
       23 CC 49 F0 8D AC 86 1C 93 0C F2 9B 65 EE F7 85
       data hash MD5: 64K
       1C C5 5A 96 D0 21 C6 D6 8E 7E C2 4A B7 83 48 CA
>)
(   2,<2024-10-28 12:49:04.593 +0100>,<AVIII600>,<AV3600>,<audit>,<TopSpin 3.6.4>,
      <user comment:
       ICON-NMR User ID: AVIII600
       data hash MD5: 64K
       1C C5 5A 96 D0 21 C6 D6 8E 7E C2 4A B7 83 48 CA>)
(   3,<2024-10-28 12:49:05.874 +0100>,<AVIII600>,<AV3600>,<proc1d>,<TopSpin 3.6.4>,
      <Start of raw data processing
       ef LB = 0.3 FT_mod = 6 PKNL = 1 SI = 64K 
       data hash MD5: 64K
       08 4F A3 EF 07 F3 75 41 48 56 FC 2A 03 07 85 46>)
(   4,<2024-10-28 12:49:07.155 +0100>,<AVIII600>,<AV3600>,<proc1d>,<TopSpin 3.6.4>,
      <apk0 
       data hash MD5: 64K
       8E 20 DD 8D 20 1A 26 C7 9E 1C BE 0A B8 BD C2 3B>)
(   5,<2024-10-28 12:49:07.421 +0100>,<AVIII600>,<AV3600>,<proc1d>,<TopSpin 3.6.4>,
      <abs ABSG = 5 
       data hash MD5: 64K
       E6 34 D3 E1 EB BD 6B 61 CA 5F 4F A1 9A 6A 94 E8>)
$$ $$ Z:/data/Datenbank/Erstellte Datenbank/Cyclopropylmethylalkohol/170/pdata/1/auditp.txt
(   6,<2024-11-07T12:25:06.584+0100>,<Tobias>,<NMR09>,<proc1d>,<TopSpin 4.4.0>,
      <Start of raw data processing
       em LB = 0.3 SI = 64K 
       data hash MD5: 64K
       AF E1 CA 54 6C 48 69 22 93 7A 24 1C B9 41 98 B0>)
(   7,<2024-11-07T12:25:07.803+0100>,<Tobias>,<NMR09>,<proc1d>,<TopSpin 4.4.0>,
      <ft FT_mod = 6 PKNL = 1 SI = 64K 
       data hash MD5: 64K
       ED DA C3 91 DD B0 2F 90 BC 0E 90 92 7E 2D 8D FC>)
(   8,<2024-11-07T12:25:09.276+0100>,<Tobias>,<NMR09>,<proc1d>,<TopSpin 4.4.0>,
      <apk 
       data hash MD5: 64K
       88 EF 1F 34 A4 24 75 6A 38 8F 84 1B 3B EA 3E 8F>)
(   9,<2024-11-07T12:25:10.279+0100>,<Tobias>,<NMR09>,<proc1d>,<TopSpin 4.4.0>,
      <abs n ABSG = 5 
       data hash MD5: 64K
       1F CA D9 90 A7 26 AF 9A E4 1D 83 8C C2 B3 D1 D7>)
(  10,<2024-11-07T12:25:27.149+0100>,<Tobias>,<NMR09>,<dataserver>,<TopSpin 4.4.0>,
      <INTEGRAL DELETE [7.181;6.658]
       data hash MD5: 64K
       1F CA D9 90 A7 26 AF 9A E4 1D 83 8C C2 B3 D1 D7>)
(  11,<2024-11-07T12:25:27.312+0100>,<Tobias>,<NMR09>,<dataserver>,<TopSpin 4.4.0>,
      <INTEGRAL DELETE [4.175;3.677]
       data hash MD5: 64K
       1F CA D9 90 A7 26 AF 9A E4 1D 83 8C C2 B3 D1 D7>)
(  12,<2024-11-07T12:25:27.651+0100>,<Tobias>,<NMR09>,<dataserver>,<TopSpin 4.4.0>,
      <INTEGRAL DELETE [3.677;3.289]
       data hash MD5: 64K
       1F CA D9 90 A7 26 AF 9A E4 1D 83 8C C2 B3 D1 D7>)
(  13,<2024-11-07T12:25:27.952+0100>,<Tobias>,<NMR09>,<dataserver>,<TopSpin 4.4.0>,
      <INTEGRAL DELETE [3.289;3.160]
       data hash MD5: 64K
       1F CA D9 90 A7 26 AF 9A E4 1D 83 8C C2 B3 D1 D7>)
(  14,<2024-11-07T12:25:28.500+0100>,<Tobias>,<NMR09>,<dataserver>,<TopSpin 4.4.0>,
      <INTEGRAL DELETE [3.160;2.959]
       data hash MD5: 64K
       1F CA D9 90 A7 26 AF 9A E4 1D 83 8C C2 B3 D1 D7>)
(  15,<2024-11-07T12:25:28.738+0100>,<Tobias>,<NMR09>,<dataserver>,<TopSpin 4.4.0>,
      <INTEGRAL DELETE [2.309;1.875]
       data hash MD5: 64K
       1F CA D9 90 A7 26 AF 9A E4 1D 83 8C C2 B3 D1 D7>)
(  16,<2024-11-07T12:25:28.938+0100>,<Tobias>,<NMR09>,<dataserver>,<TopSpin 4.4.0>,
      <INTEGRAL DELETE [1.629;1.229]
       data hash MD5: 64K
       1F CA D9 90 A7 26 AF 9A E4 1D 83 8C C2 B3 D1 D7>)
(  17,<2024-11-07T12:25:29.217+0100>,<Tobias>,<NMR09>,<dataserver>,<TopSpin 4.4.0>,
      <INTEGRAL DELETE [1.057;0.795]
       data hash MD5: 64K
       1F CA D9 90 A7 26 AF 9A E4 1D 83 8C C2 B3 D1 D7>)
(  18,<2024-11-07T12:25:29.440+0100>,<Tobias>,<NMR09>,<dataserver>,<TopSpin 4.4.0>,
      <INTEGRAL DELETE [0.794;0.601]
       data hash MD5: 64K
       1F CA D9 90 A7 26 AF 9A E4 1D 83 8C C2 B3 D1 D7>)
(  19,<2024-11-07T12:25:29.772+0100>,<Tobias>,<NMR09>,<dataserver>,<TopSpin 4.4.0>,
      <INTEGRAL DELETE [0.475;0.227]
       data hash MD5: 64K
       1F CA D9 90 A7 26 AF 9A E4 1D 83 8C C2 B3 D1 D7>)
(  20,<2024-11-07T12:25:30.020+0100>,<Tobias>,<NMR09>,<dataserver>,<TopSpin 4.4.0>,
      <INTEGRAL DELETE [0.226;0.080]
       data hash MD5: 64K
       1F CA D9 90 A7 26 AF 9A E4 1D 83 8C C2 B3 D1 D7>)
(  21,<2024-11-07T12:25:30.289+0100>,<Tobias>,<NMR09>,<dataserver>,<TopSpin 4.4.0>,
      <INTEGRAL DELETE [0.079;-0.137]
       data hash MD5: 64K
       1F CA D9 90 A7 26 AF 9A E4 1D 83 8C C2 B3 D1 D7>)
(  22,<2024-11-07T12:25:30.490+0100>,<Tobias>,<NMR09>,<dataserver>,<TopSpin 4.4.0>,
      <INTEGRAL DELETE [-0.138;-0.343]
       data hash MD5: 64K
       1F CA D9 90 A7 26 AF 9A E4 1D 83 8C C2 B3 D1 D7>)
(  23,<2024-11-07T12:25:46.439+0100>,<Tobias>,<NMR09>,<cprserver>,<TopSpin 4.4.0>,
      <changed parameter F1 SR to 0>)
$$ $$ Z:/data/Datenbank/Erstellte Datenbank/Cyclopropylmethylalkohol/170//pdata/1/auditp.txt
(  24,<2024-11-07T12:25:54.362+0100>,<Tobias>,<NMR09>,<sref>,<TopSpin 4.4.0>,
      <sref
       data hash MD5: 64K
       1F CA D9 90 A7 26 AF 9A E4 1D 83 8C C2 B3 D1 D7>)
$$ $$ Z:/data/Datenbank/Erstellte Datenbank/Cyclopropylmethylalkohol/170/pdata/1/auditp.txt
(  25,<2024-11-07T12:26:16.975+0100>,<Tobias>,<NMR09>,<dataserver>,<TopSpin 4.4.0>,
      <Spectrum calibrated, SF was set. Old value: 600.130129 New value: 600.130004. Peak list modified: Yes
       data hash MD5: 64K
       1F CA D9 90 A7 26 AF 9A E4 1D 83 8C C2 B3 D1 D7>)
(  26,<2024-11-07T12:26:17.160+0100>,<Tobias>,<NMR09>,<dataserver>,<TopSpin 4.4.0>,
      <Spectrum calibrated, OFFSET was set. Old value: 15.973380 New value: 16.181518. Peak list modified: Yes
       data hash MD5: 64K
       1F CA D9 90 A7 26 AF 9A E4 1D 83 8C C2 B3 D1 D7>)
(  27,<2024-11-07T12:28:45.425+0100>,<Tobias>,<NMR09>,<proc1d>,<TopSpin 4.4.0>,
      <pk fgphup PHC0 = -0.8 PHC1 = 0 
       data hash MD5: 64K
       F0 11 67 CD DA 78 7B 39 0C 78 77 B8 A4 C1 8C 92>)
(  28,<2024-11-07T12:29:46.591+0100>,<Tobias>,<NMR09>,<dataserver>,<TopSpin 4.4.0>,
      <INTEGRAL DEFINE [3.470;3.418]
       data hash MD5: 64K
       F0 11 67 CD DA 78 7B 39 0C 78 77 B8 A4 C1 8C 92>)
(  29,<2024-11-07T12:29:46.792+0100>,<Tobias>,<NMR09>,<dataserver>,<TopSpin 4.4.0>,
      <INTEGRAL DEFINE [1.148;1.051]
       data hash MD5: 64K
       F0 11 67 CD DA 78 7B 39 0C 78 77 B8 A4 C1 8C 92>)
(  30,<2024-11-07T12:29:47.833+0100>,<Tobias>,<NMR09>,<dataserver>,<TopSpin 4.4.0>,
      <INTEGRAL DELETE [1.148;1.051]
       data hash MD5: 64K
       F0 11 67 CD DA 78 7B 39 0C 78 77 B8 A4 C1 8C 92>)
(  31,<2024-11-07T12:29:48.049+0100>,<Tobias>,<NMR09>,<dataserver>,<TopSpin 4.4.0>,
      <INTEGRAL DEFINE [1.166;1.043]
       data hash MD5: 64K
       F0 11 67 CD DA 78 7B 39 0C 78 77 B8 A4 C1 8C 92>)
(  32,<2024-11-07T12:29:48.365+0100>,<Tobias>,<NMR09>,<dataserver>,<TopSpin 4.4.0>,
      <INTEGRAL DEFINE [0.581;0.480]
       data hash MD5: 64K
       F0 11 67 CD DA 78 7B 39 0C 78 77 B8 A4 C1 8C 92>)
(  33,<2024-11-07T12:29:48.597+0100>,<Tobias>,<NMR09>,<dataserver>,<TopSpin 4.4.0>,
      <INTEGRAL DEFINE [0.266;0.160]
       data hash MD5: 64K
       F0 11 67 CD DA 78 7B 39 0C 78 77 B8 A4 C1 8C 92>)
$$ $$ G:\data\Datenbank\Erstellte Datenbank/Cyclopropylmethylalkohol/170/pdata/1/auditp.txt
(  34,<2024-11-26T14:30:21.790+0100>,<hackl>,<NMR18>,<proc1d>,<TopSpin 4.4.0>,
      <Start of raw data processing
       em LB = 0.3 SI = 64K 
       data hash MD5: 64K
       AF E1 CA 54 6C 48 69 22 93 7A 24 1C B9 41 98 B0>)
(  35,<2024-11-26T14:30:22.765+0100>,<hackl>,<NMR18>,<proc1d>,<TopSpin 4.4.0>,
      <ft FT_mod = 6 PKNL = 1 SI = 64K 
       data hash MD5: 64K
       ED DA C3 91 DD B0 2F 90 BC 0E 90 92 7E 2D 8D FC>)
(  36,<2024-11-26T14:30:23.750+0100>,<hackl>,<NMR18>,<proc1d>,<TopSpin 4.4.0>,
      <apk 
       data hash MD5: 64K
       88 EF 1F 34 A4 24 75 6A 38 8F 84 1B 3B EA 3E 8F>)
(  37,<2024-11-26T14:30:24.384+0100>,<hackl>,<NMR18>,<proc1d>,<TopSpin 4.4.0>,
      <abs n ABSG = 5 
       data hash MD5: 64K
       1F CA D9 90 A7 26 AF 9A E4 1D 83 8C C2 B3 D1 D7>)
(  38,<2024-11-26T14:54:34.095+0100>,<hackl>,<NMR18>,<cprserver>,<TopSpin 4.4.0>,
      <changed parameter F1 PHC0 to 0>)
(  39,<2024-11-26T14:54:35.221+0100>,<hackl>,<NMR18>,<cprserver>,<TopSpin 4.4.0>,
      <changed parameter F1 PHC1 to 0>)
(  40,<2024-11-26T14:54:40.007+0100>,<hackl>,<NMR18>,<proc1d>,<TopSpin 4.4.0>,
      <Start of raw data processing
       ef LB = 0.3 FT_mod = 6 PKNL = 1 SI = 64K 
       data hash MD5: 64K
       08 4F A3 EF 07 F3 75 41 48 56 FC 2A 03 07 85 46>)
(  41,<2024-11-26T14:55:49.625+0100>,<hackl>,<NMR18>,<proc1d>,<TopSpin 4.4.0>,
      <pk fgphup PHC0 = 80.76114 PHC1 = -3.4 
       data hash MD5: 64K
       AA 28 E5 A2 65 90 FE 94 BA AC 35 6C 70 94 C2 7C>)
(  42,<2024-11-26T15:04:20.635+0100>,<hackl>,<NMR18>,<dataserver>,<TopSpin 4.4.0>,
      <Start of interactive peak picking
       data hash MD5: 64K
       AA 28 E5 A2 65 90 FE 94 BA AC 35 6C 70 94 C2 7C>)
(  43,<2024-11-26T15:04:36.285+0100>,<hackl>,<NMR18>,<peak>,<TopSpin 4.4.0>,
      <1D Peak picking
       data hash MD5: 64K
       AA 28 E5 A2 65 90 FE 94 BA AC 35 6C 70 94 C2 7C>)
(  44,<2024-11-26T15:04:40.289+0100>,<hackl>,<NMR18>,<peak>,<TopSpin 4.4.0>,
      <1D Peak picking
       data hash MD5: 64K
       AA 28 E5 A2 65 90 FE 94 BA AC 35 6C 70 94 C2 7C>)
(  45,<2024-11-26T15:04:45.254+0100>,<hackl>,<NMR18>,<dataserver>,<TopSpin 4.4.0>,
      <All peaks removed
       data hash MD5: 64K
       AA 28 E5 A2 65 90 FE 94 BA AC 35 6C 70 94 C2 7C>)
(  46,<2024-11-26T15:04:46.179+0100>,<hackl>,<NMR18>,<dataserver>,<TopSpin 4.4.0>,
      <End of interactive peak picking
       data hash MD5: 64K
       AA 28 E5 A2 65 90 FE 94 BA AC 35 6C 70 94 C2 7C>)
(  47,<2024-11-26T15:06:30.252+0100>,<hackl>,<NMR18>,<dataserver>,<TopSpin 4.4.0>,
      <INTEGRAL DEFINE [3.496;3.400]
       data hash MD5: 64K
       AA 28 E5 A2 65 90 FE 94 BA AC 35 6C 70 94 C2 7C>)
(  48,<2024-11-26T15:06:30.326+0100>,<hackl>,<NMR18>,<dataserver>,<TopSpin 4.4.0>,
      <INTEGRAL DELETE [3.470;3.418]
       data hash MD5: 64K
       AA 28 E5 A2 65 90 FE 94 BA AC 35 6C 70 94 C2 7C>)
(  49,<2024-11-26T15:06:30.522+0100>,<hackl>,<NMR18>,<dataserver>,<TopSpin 4.4.0>,
      <INTEGRAL DELETE [1.166;1.043]
       data hash MD5: 64K
       AA 28 E5 A2 65 90 FE 94 BA AC 35 6C 70 94 C2 7C>)
(  50,<2024-11-26T15:06:30.606+0100>,<hackl>,<NMR18>,<dataserver>,<TopSpin 4.4.0>,
      <INTEGRAL DELETE [0.581;0.480]
       data hash MD5: 64K
       AA 28 E5 A2 65 90 FE 94 BA AC 35 6C 70 94 C2 7C>)
(  51,<2024-11-26T15:06:31.023+0100>,<hackl>,<NMR18>,<dataserver>,<TopSpin 4.4.0>,
      <INTEGRAL DELETE [0.266;0.160]
       data hash MD5: 64K
       AA 28 E5 A2 65 90 FE 94 BA AC 35 6C 70 94 C2 7C>)
(  52,<2024-11-26T15:06:31.108+0100>,<hackl>,<NMR18>,<dataserver>,<TopSpin 4.4.0>,
      <INTEGRAL DEFINE [1.178;1.031]
       data hash MD5: 64K
       AA 28 E5 A2 65 90 FE 94 BA AC 35 6C 70 94 C2 7C>)
(  53,<2024-11-26T15:06:31.177+0100>,<hackl>,<NMR18>,<dataserver>,<TopSpin 4.4.0>,
      <INTEGRAL DEFINE [0.585;0.475]
       data hash MD5: 64K
       AA 28 E5 A2 65 90 FE 94 BA AC 35 6C 70 94 C2 7C>)
(  54,<2024-11-26T15:06:31.312+0100>,<hackl>,<NMR18>,<dataserver>,<TopSpin 4.4.0>,
      <INTEGRAL DEFINE [0.264;0.158]
       data hash MD5: 64K
       AA 28 E5 A2 65 90 FE 94 BA AC 35 6C 70 94 C2 7C>)
(  55,<2024-11-26T15:06:31.501+0100>,<hackl>,<NMR18>,<dataserver>,<TopSpin 4.4.0>,
      <INTEGRAL DEFINE [1.673;1.610]
       data hash MD5: 64K
       AA 28 E5 A2 65 90 FE 94 BA AC 35 6C 70 94 C2 7C>)
$$ $$ X:\data\Datenbank\Erstellte Datenbank/Cyclopropylmethylalkohol/170/pdata/1/auditp.txt
(  56,<2024-12-04T10:36:08.177+0100>,<User>,<BUCHWEITZ12>,<proc1d>,<TopSpin 4.4.1>,
      <Start of raw data processing
       em LB = 0.3 SI = 64K
       fid data hash MD5: 64K
       1C C5 5A 96 D0 21 C6 D6 8E 7E C2 4A B7 83 48 CA
       data hash MD5: 64K
       4D 15 B5 8F 4E 4E BF 40 88 E6 59 DA F4 08 06 F9>)
(  57,<2024-12-04T10:36:11.253+0100>,<User>,<BUCHWEITZ12>,<proc1d>,<TopSpin 4.4.1>,
      <ft FT_mod = 6 PKNL = 1 SI = 64K
       data hash MD5: 64K
       AF 36 FE 9A AB A5 9F 5E 5F EF 6E 48 C6 C7 E8 69>)
(  58,<2024-12-04T10:36:13.327+0100>,<User>,<BUCHWEITZ12>,<proc1d>,<TopSpin 4.4.1>,
      <apk
       data hash MD5: 64K
       75 BE A4 72 3C 49 FE A9 D7 A7 CD 51 10 01 A2 7B>)
(  59,<2024-12-04T10:36:14.865+0100>,<User>,<BUCHWEITZ12>,<proc1d>,<TopSpin 4.4.1>,
      <abs n ABSG = 5
       data hash MD5: 64K
       C5 EB AB 53 A4 06 3B 5E 03 94 3D 6D BE 9B 96 73>)
(  60,<2024-12-04T10:36:16.935+0100>,<User>,<BUCHWEITZ12>,<sref>,<TopSpin 4.4.1>,
      <sref
       data hash MD5: 64K
       C5 EB AB 53 A4 06 3B 5E 03 94 3D 6D BE 9B 96 73>)
$$ ##END=
$$ 
$$ $$ hash MD5
$$ $$ 8A 46 85 DB 7F 0E 09 C5 8C 62 B9 72 44 D2 F9 96
##$RELAX= 
##$BRUKER FILE EXP=format.temp
$$ EDIT_PAR COMMAND FILE
$$ 
$$ DI_MODE         LONG
$$ ED_ENTRY        ACQU
$$ ORDER           FILE
$$ 
$$ 
$$ HEADER		"F2 - Acquisition Parameters"
$$ T_NAME		Date_
$$ 		TYPE	R64
$$ 		CLASS	ACQU
$$ 		SUBRANGE 0.0 50000000
$$ 		REL	"Date_=itodate(DATE)"
$$ 		INV_REL	"DATE=datetoi(Date_,DATE)"
$$ 		FORMAT	"%14.0f"
$$ 		TEXT	" "
$$ END
$$ T_NAME		Time
$$ 		TYPE	R32
$$ 		CLASS	ACQU
$$ 		SUBRANGE 0.0 1000000
$$ 		REL	"Time=itotime(DATE)"
$$ 		INV_REL	"DATE=timetoi(Time,DATE)"
$$ 		FORMAT	"%14.2f h"
$$ 		TEXT	" "
$$ END
$$ NAME		INSTRUM
$$ 		TEXT	" "
$$ END
$$ NAME		PROBHD
$$ 		FORMAT	"%14.14s"
$$ 		TEXT	" "
$$ END
$$ NAME		PULPROG
$$ 		TEXT	" "
$$ END
$$ NAME		TD
$$ 		TEXT	" "
$$ END
$$ NAME		SOLVENT
$$ 		TEXT	" "
$$ END
$$ NAME		NS
$$ 		TEXT	" "
$$ END
$$ NAME		DS
$$ 		TEXT	" "
$$ END
$$ T_NAME		SWH
$$ 		TYPE	R32
$$ 		CLASS	ACQU
$$ 		SUBRANGE 0.0 1e8
$$ 		REL	"SWH=SW*SFO1"
$$ 		INV_REL "SW=SWH/SFO1"
$$ 		UNIT	"Hz"
$$ 		FORMAT	"%14.3f Hz"
$$ 		TEXT	" "
$$ END
$$ T_NAME          FIDRES
$$                 TYPE    R32
$$                 CLASS   ACQU
$$                 SUBRANGE 0.0 100000
$$                 REL     "FIDRES=2*SW*SFO1/TD"
$$                 INV_REL "TD = nextpow(2*SW*SFO1/FIDRES)"
$$ 		UNIT	"Hz"
$$ 		FORMAT	"%14.6f Hz"
$$ 		TEXT	" "
$$ END
$$ T_NAME          AQ
$$ 		TYPE	R32
$$ 		CLASS	ACQU
$$ 		SUBRANGE 0.0 1000
$$ 		REL	"AQ=aqcalc(SW,SFO1,TD,DIGTYP)"
$$ 		INV_REL	"TD=tdcalc(SW,SFO1,1.0e6*AQ,DIGTYP)"
$$ 		UNIT	"sec"
$$ 		FORMAT	"%14.7f sec"
$$ 		TEXT	" "
$$ END
$$ NAME		RG
$$ 		TEXT	" "
$$ END
$$ T_NAME          DW
$$ 		TYPE	R32
$$ 		CLASS	ACQU
$$ 		SUBRANGE 0.0 1000000
$$ 		REL	"DW=1/(2*SW*SFO1)"
$$ 		INV_REL	"SW=1000000/(2*(0.005+DW)*SFO1)"
$$ 		UNIT	"usec"
$$ 		FORMAT	"%14.3lf usec"
$$ 		TEXT	" "
$$ END
$$ NAME		DE
$$ 		FORMAT	"%14.2f usec"
$$ 		TEXT	" "
$$ END
$$ NAME		TE
$$ 		FORMAT	"%14.1f K"
$$ 		TEXT	" "
$$ END
$$ T_NAME		D1
$$ 		TYPE	R32
$$ 		CLASS	ACQU
$$ 		SUBRANGE 0.0 1e38
$$ 		REL	"D1=D[1]"
$$ 		INV_REL	"D[1]=D1"
$$ 		UNIT	"sec"
$$ 		FORMAT	"%14.8f sec"
$$ 		TEXT	" "
$$ END
$$ NAME		TD0
$$ 		TEXT	" "
$$ END
$$ NAME		SFO1
$$ 		FORMAT	"%14.7f MHz"
$$ 		TEXT	" "
$$ END
$$ NAME		NUC1
$$ 		NONEDIT
$$ 		TEXT	" "
$$ END
$$ T_NAME		P0
$$ 		TYPE	R32
$$ 		CLASS	ACQU
$$ 		SUBRANGE 0.0 1.0e10
$$ 		REL	"P0=P[0]"
$$ 		INV_REL	"P[0]=P0"
$$ 		UNIT	"usec"
$$ 		FORMAT	"%14.2f usec"
$$ 		TEXT	" "
$$ END
$$ T_NAME		P1
$$ 		TYPE	R32
$$ 		CLASS	ACQU
$$ 		SUBRANGE 0.0 1.0e10
$$ 		REL	"P1=P[1]"
$$ 		INV_REL	"P[1]=P1"
$$ 		UNIT	"usec"
$$ 		FORMAT	"%14.2f usec"
$$ 		TEXT	" "
$$ END
$$ T_NAME		PLW1
$$ 		TYPE	R32
$$ 		CLASS	ACQU
$$ 		REL	"PLW1=PLW[1]"
$$ 		INV_REL	"PLW[1]=PLW1"
$$ 		UNIT	"W"
$$ 		FORMAT	"%14.8f W"
$$ 		TEXT	"power PLW1 "
$$ END
##$RELAX= 
##$BRUKER FILE EXP=fq1list
$$ O 600.133706
$$ -5000000
$$ -4968750
$$ -4937500
$$ -4906250
$$ -4875000
$$ -4843750
$$ -4812500
$$ -4781250
$$ -4750000
$$ -4718750
$$ -4687500
$$ -4656250
$$ -4625000
$$ -4593750
$$ -4562500
$$ -4531250
$$ -4500000
$$ -4468750
$$ -4437500
$$ -4406250
$$ -4375000
$$ -4343750
$$ -4312500
$$ -4281250
$$ -4250000
$$ -4218750
$$ -4187500
$$ -4156250
$$ -4125000
$$ -4093750
$$ -4062500
$$ -4031250
$$ -4000000
$$ -3968750
$$ -3937500
$$ -3906250
$$ -3875000
$$ -3843750
$$ -3812500
$$ -3781250
$$ -3750000
$$ -3718750
$$ -3687500
$$ -3656250
$$ -3625000
$$ -3593750
$$ -3562500
$$ -3531250
$$ -3500000
$$ -3468750
$$ -3437500
$$ -3406250
$$ -3375000
$$ -3343750
$$ -3312500
$$ -3281250
$$ -3250000
$$ -3218750
$$ -3187500
$$ -3156250
$$ -3125000
$$ -3093750
$$ -3062500
$$ -3031250
$$ -3000000
$$ -2968750
$$ -2937500
$$ -2906250
$$ -2875000
$$ -2843750
$$ -2812500
$$ -2781250
$$ -2750000
$$ -2718750
$$ -2687500
$$ -2656250
$$ -2625000
$$ -2593750
$$ -2562500
$$ -2531250
$$ -2500000
$$ -2468750
$$ -2437500
$$ -2406250
$$ -2375000
$$ -2343750
$$ -2312500
$$ -2281250
$$ -2250000
$$ -2218750
$$ -2187500
$$ -2156250
$$ -2125000
$$ -2093750
$$ -2062500
$$ -2031250
$$ -2000000
$$ -1968750
$$ -1937500
$$ -1906250
$$ -1875000
$$ -1843750
$$ -1812500
$$ -1781250
$$ -1750000
$$ -1718750
$$ -1687500
$$ -1656250
$$ -1625000
$$ -1593750
$$ -1562500
$$ -1531250
$$ -1500000
$$ -1468750
$$ -1437500
$$ -1406250
$$ -1375000
$$ -1343750
$$ -1312500
$$ -1281250
$$ -1250000
$$ -1218750
$$ -1187500
$$ -1156250
$$ -1125000
$$ -1093750
$$ -1062500
$$ -1031250
$$ -1000000
$$  -992157
$$  -984314
$$  -976471
$$  -968627
$$  -960784
$$  -952941
$$  -945098
$$  -937255
$$  -929412
$$  -921569
$$  -913725
$$  -905882
$$  -898039
$$  -890196
$$  -882353
$$  -874510
$$  -866667
$$  -858824
$$  -850980
$$  -843137
$$  -835294
$$  -827451
$$  -819608
$$  -811765
$$  -803922
$$  -796078
$$  -788235
$$  -780392
$$  -772549
$$  -764706
$$  -756863
$$  -749020
$$  -741176
$$  -733333
$$  -725490
$$  -717647
$$  -709804
$$  -701961
$$  -694118
$$  -686275
$$  -678431
$$  -670588
$$  -662745
$$  -654902
$$  -647059
$$  -639216
$$  -631373
$$  -623529
$$  -615686
$$  -607843
$$  -600000
$$  -592157
$$  -584314
$$  -576471
$$  -568627
$$  -560784
$$  -552941
$$  -545098
$$  -537255
$$  -529412
$$  -521569
$$  -513725
$$  -505882
$$  -498039
$$  -490196
$$  -482353
$$  -474510
$$  -466667
$$  -458824
$$  -450980
$$  -443137
$$  -435294
$$  -427451
$$  -419608
$$  -411765
$$  -403922
$$  -396078
$$  -388235
$$  -380392
$$  -372549
$$  -364706
$$  -356863
$$  -349020
$$  -341176
$$  -333333
$$  -325490
$$  -317647
$$  -309804
$$  -301961
$$  -294118
$$  -286275
$$  -278431
$$  -270588
$$  -262745
$$  -254902
$$  -247059
$$  -239216
$$  -231373
$$  -223529
$$  -215686
$$  -207843
$$  -200000
$$  -192157
$$  -184314
$$  -176471
$$  -168627
$$  -160784
$$  -152941
$$  -145098
$$  -137255
$$  -129412
$$  -121569
$$  -113725
$$  -105882
$$   -98039
$$   -90196
$$   -82353
$$   -74510
$$   -66667
$$   -58824
$$   -50980
$$   -43137
$$   -35294
$$   -27451
$$   -19608
$$   -11765
$$    -3922
$$     3922
$$    11765
$$    19608
$$    27451
$$    35294
$$    43137
$$    50980
$$    58824
$$    66667
$$    74510
$$    82353
$$    90196
$$    98039
$$   105882
$$   113725
$$   121569
$$   129412
$$   137255
$$   145098
$$   152941
$$   160784
$$   168627
$$   176471
$$   184314
$$   192157
$$   200000
$$   207843
$$   215686
$$   223529
$$   231373
$$   239216
$$   247059
$$   254902
$$   262745
$$   270588
$$   278431
$$   286275
$$   294118
$$   301961
$$   309804
$$   317647
$$   325490
$$   333333
$$   341176
$$   349020
$$   356863
$$   364706
$$   372549
$$   380392
$$   388235
$$   396078
$$   403922
$$   411765
$$   419608
$$   427451
$$   435294
$$   443137
$$   450980
$$   458824
$$   466667
$$   474510
$$   482353
$$   490196
$$   498039
$$   505882
$$   513725
$$   521569
$$   529412
$$   537255
$$   545098
$$   552941
$$   560784
$$   568627
$$   576471
$$   584314
$$   592157
$$   600000
$$   607843
$$   615686
$$   623529
$$   631373
$$   639216
$$   647059
$$   654902
$$   662745
$$   670588
$$   678431
$$   686275
$$   694118
$$   701961
$$   709804
$$   717647
$$   725490
$$   733333
$$   741176
$$   749020
$$   756863
$$   764706
$$   772549
$$   780392
$$   788235
$$   796078
$$   803922
$$   811765
$$   819608
$$   827451
$$   835294
$$   843137
$$   850980
$$   858824
$$   866667
$$   874510
$$   882353
$$   890196
$$   898039
$$   905882
$$   913725
$$   921569
$$   929412
$$   937255
$$   945098
$$   952941
$$   960784
$$   968627
$$   976471
$$   984314
$$   992157
$$  1000000
$$  1031250
$$  1062500
$$  1093750
$$  1125000
$$  1156250
$$  1187500
$$  1218750
$$  1250000
$$  1281250
$$  1312500
$$  1343750
$$  1375000
$$  1406250
$$  1437500
$$  1468750
$$  1500000
$$  1531250
$$  1562500
$$  1593750
$$  1625000
$$  1656250
$$  1687500
$$  1718750
$$  1750000
$$  1781250
$$  1812500
$$  1843750
$$  1875000
$$  1906250
$$  1937500
$$  1968750
$$  2000000
$$  2031250
$$  2062500
$$  2093750
$$  2125000
$$  2156250
$$  2187500
$$  2218750
$$  2250000
$$  2281250
$$  2312500
$$  2343750
$$  2375000
$$  2406250
$$  2437500
$$  2468750
$$  2500000
$$  2531250
$$  2562500
$$  2593750
$$  2625000
$$  2656250
$$  2687500
$$  2718750
$$  2750000
$$  2781250
$$  2812500
$$  2843750
$$  2875000
$$  2906250
$$  2937500
$$  2968750
$$  3000000
$$  3031250
$$  3062500
$$  3093750
$$  3125000
$$  3156250
$$  3187500
$$  3218750
$$  3250000
$$  3281250
$$  3312500
$$  3343750
$$  3375000
$$  3406250
$$  3437500
$$  3468750
$$  3500000
$$  3531250
$$  3562500
$$  3593750
$$  3625000
$$  3656250
$$  3687500
$$  3718750
$$  3750000
$$  3781250
$$  3812500
$$  3843750
$$  3875000
$$  3906250
$$  3937500
$$  3968750
$$  4000000
$$  4031250
$$  4062500
$$  4093750
$$  4125000
$$  4156250
$$  4187500
$$  4218750
$$  4250000
$$  4281250
$$  4312500
$$  4343750
$$  4375000
$$  4406250
$$  4437500
$$  4468750
$$  4500000
$$  4531250
$$  4562500
$$  4593750
$$  4625000
$$  4656250
$$  4687500
$$  4718750
$$  4750000
$$  4781250
$$  4812500
$$  4843750
$$  4875000
$$  4906250
$$  4937500
$$  4968750
$$  5000000
##$RELAX= 
##$BRUKER FILE EXP=scon2
$$ ##TITLE= Parameter file, TopSpin 3.6.4
$$ ##JCAMPDX= 5.0
$$ ##DATATYPE= Parameter Values
$$ ##NPOINTS= 1	$$ modification sequence number
$$ ##ORIGIN= Bruker BioSpin GmbH
$$ ##OWNER= AVIII600
$$ $$ 2024-10-28 12:47:53.652 +0100  AVIII600@AV3600
$$ $$ D:/Bruker/Topspin/data/AVIII600/nmr/20241028-AVIII600/170/scon2
$$ $$ process C:\Bruker\TopSpin3.6.4\prog\mod\go4.exe
$$ ##$BLKTR= (0..19)
$$ 3 3 3 3 3 3 3 3 3 3 3 3 3 3 3 3 3 3 3 3
$$ ##$DE1= 4.5
$$ ##$DEADC= 0.5
$$ ##$DEPA= 4.5
$$ ##$DERX= 1.5
$$ ##$FILCOR= 0.84
$$ ##$GRADCHAN= 0
$$ ##$GRADPRE= (0..1)
$$ 10 10
$$ ##$HD_BLKTR= (0..19)
$$ 1 1 1 1 1 1 1 1 1 1 1 1 1 1 1 1 1 1 1 1
$$ ##$HD_DE1= 5
$$ ##$HD_DEADC= 0
$$ ##$HD_DEPA= 2.5
$$ ##$HD_DERX= 0
$$ ##END=
##$RELAX= 
##$BRUKER FILE EXP=prosol_History
##$RELAX= 
##$BRUKER FILE EXP=pulseprogram
$$ # 1 "C:/Bruker/TopSpin3.6.4/exp/stan/nmr/lists/pp/zg30"
$$ ;zg30
$$ ;avance-version (18/04/13)
$$ ;1D sequence
$$ ;using 30 degree flip angle
$$ ;
$$ ;$CLASS=HighRes
$$ ;$DIM=1D
$$ ;$TYPE=
$$ ;$SUBTYPE=
$$ ;$COMMENT=
$$ ;$RECOMMEND=y
$$ 
$$ 
$$ # 1 "C:/Bruker/TopSpin3.6.4/exp/stan/nmr/lists/pp/Avance.incl" 1
$$ ;Avance3.incl
$$ ;   for AV III
$$ ;
$$ ;avance-version (13/06/17)
$$ ;
$$ ;$CLASS=HighRes Incl
$$ ;$COMMENT=
$$ # 169 "C:/Bruker/TopSpin3.6.4/exp/stan/nmr/lists/pp/Avance.incl"
$$ ;$Id: Avance3.incl,v 1.10.2.2 2013/08/30 09:43:33 ber Exp $
$$ # 14 "C:/Bruker/TopSpin3.6.4/exp/stan/nmr/lists/pp/zg30" 2
$$ 
$$ 
$$ # 17 "C:/Bruker/TopSpin3.6.4/exp/stan/nmr/lists/pp/zg30"
$$ "p0=p1/3"
$$ 
$$ 
$$ "acqt0=-tan((p0/p1)*(PI/4))*p1*2/PI"
$$ # 1 "mc_line 23 file C:/Bruker/TopSpin3.6.4/exp/stan/nmr/lists/pp/zg30 exp. def. part of mc cmd. before ze"
$$ ; dimension 1D; AQ_mode 
$$ define delay MCWRK
$$ define delay MCREST
$$ "MCREST = 30m - 30m"
$$ "MCWRK = 0.333333*30m"
$$ 
$$     dccorr
$$ # 23 "C:/Bruker/TopSpin3.6.4/exp/stan/nmr/lists/pp/zg30"
$$ # 23 "C:/Bruker/TopSpin3.6.4/exp/stan/nmr/lists/pp/zg30"
$$ 1 ze
$$ # 1 "mc_line 23 file C:/Bruker/TopSpin3.6.4/exp/stan/nmr/lists/pp/zg30 exp. def. of mc cmd. after ze"
$$ # 24 "C:/Bruker/TopSpin3.6.4/exp/stan/nmr/lists/pp/zg30"
$$ # 1 "mc_line 24 file C:/Bruker/TopSpin3.6.4/exp/stan/nmr/lists/pp/zg30 exp. start label for mc cmd."
$$ 2 MCWRK  * 2
$$ LBLF0, MCWRK
$$   MCREST
$$ # 25 "C:/Bruker/TopSpin3.6.4/exp/stan/nmr/lists/pp/zg30"
$$   d1
$$   p0 ph1
$$   go=2 ph31
$$ # 1 "mc_line 28 file C:/Bruker/TopSpin3.6.4/exp/stan/nmr/lists/pp/zg30 exp. mc cmd. in line"
$$   MCWRK wr #0
$$   MCWRK zd
$$   lo to LBLF0 times td0
$$ 
$$ # 29 "C:/Bruker/TopSpin3.6.4/exp/stan/nmr/lists/pp/zg30"
$$ exit
$$ 
$$ 
$$ ph1=0 2 2 0 1 3 3 1
$$ ph31=0 2 2 0 1 3 3 1
$$ # 36 "C:/Bruker/TopSpin3.6.4/exp/stan/nmr/lists/pp/zg30"
$$ ;pl1 : f1 channel - power level for pulse (default)
$$ ;p1 : f1 channel -  90 degree high power pulse
$$ ;d1 : relaxation delay; 1-5 * T1
$$ ;ns: 1 * n, total number of scans: NS * TD0
$$ 
$$ 
$$ # 43 "C:/Bruker/TopSpin3.6.4/exp/stan/nmr/lists/pp/zg30"
$$ ;$Id: zg30,v 1.12.2.2 2018/04/13 14:28:42 ber Exp $
##$RELAX= 
##$BRUKER FILE EXP=shimvalues
$$ # Mon Oct 28 12:49:04 2024
$$ #$$PROBEIDENTIFIER=Z114607_0100
$$ #$$PROBENAME=PA BBO 600S3 BBF-H-D-05 Z SP
$$ #$$SHIMID=292722
$$ #
$$ # Active Shim Gradients
$$ #
$$ Z           		-5620           
$$ Z2          		5571            
$$ Z3          		185             
$$ Z4          		568             
$$ Z5          		591             
$$ Z6          		-1083           
$$ Z7          		4252            
$$ Z8          		9915            
$$ X           		11147           
$$ XZ          		-3448           
$$ XZ2         		5443            
$$ XZ3         		-4597           
$$ XZ4         		-1052           
$$ XZ5         		-8062           
$$ Y           		10680           
$$ YZ          		4663            
$$ YZ2         		17837           
$$ YZ3         		3756            
$$ YZ4         		2561            
$$ YZ5         		-852            
$$ XY          		-13939          
$$ XYZ         		7981            
$$ XYZ2        		3260            
$$ XYZ3        		111             
$$ XYZ4        		1953            
$$ XYZ5        		140             
$$ (X2-Y2)     		8051            
$$ (X2-Y2)Z    		12052           
$$ (X2-Y2)Z2   		-1446           
$$ (X2-Y2)Z3   		-895            
$$ (X2-Y2)Z4   		1223            
$$ (X2-Y2)Z5   		207             
$$ X3          		6610            
$$ X3Z         		-8815           
$$ Y3          		332             
$$ Y3Z         		-937            
$$ #
$$ # Lock Parameter
$$ #
$$ FIELD		3395.436
$$ LOCKPHASE		141.319 
$$ LOCKPOWER		-30.000 
$$ LOCKGAIN		122.067 
$$ LOCKDC		-75.500 
$$ LOCKSHIFT		7.240   
$$ LOOPGAIN		-12.000 
$$ LOOPTIME		0.400   
$$ LOOPFILTER		100.000 
$$ #
$$ IEEE64_VERSION_CODE 1
$$ #
$$ # Shim currents 
$$ #
$$ SHIM_SETTING [1 ]  -2170.84253109  
$$ SHIM_SETTING [2 ]  1166.38670430   
$$ SHIM_SETTING [3 ]  -2119.37069518  
$$ SHIM_SETTING [4 ]  10508.24721898  
$$ SHIM_SETTING [5 ]  -5011.28319560  
$$ SHIM_SETTING [6 ]  -4187.58323686  
$$ SHIM_SETTING [7 ]  16030.30148412  
$$ SHIM_SETTING [8 ]  6230.37409809   
$$ SHIM_SETTING [9 ]  3224.01556728   
$$ SHIM_SETTING [10]  296.12849462    
$$ SHIM_SETTING [11]  0.00000000      
$$ SHIM_SETTING [12]  1268.85300000   
$$ SHIM_SETTING [13]  -605.33700000   
$$ SHIM_SETTING [14]  7481.23300281   
$$ SHIM_SETTING [15]  4467.63736920   
$$ SHIM_SETTING [16]  25272.38441371  
$$ SHIM_SETTING [17]  9828.53704641   
$$ SHIM_SETTING [18]  7540.05997548   
$$ SHIM_SETTING [19]  -9110.04490776  
$$ SHIM_SETTING [20]  14732.00464832  
$$ SHIM_SETTING [21]  15781.55300917  
$$ SHIM_SETTING [22]  -7122.56998878  
$$ SHIM_SETTING [23]  17017.59098912  
$$ SHIM_SETTING [24]  -1243.56599051  
$$ SHIM_SETTING [25]  6411.00699947   
$$ SHIM_SETTING [26]  2400.39501365   
$$ SHIM_SETTING [27]  -1069.33000040  
$$ SHIM_SETTING [28]  36803.16741168  
$$ SHIM_SETTING [29]  -2861.25301971  
$$ SHIM_SETTING [30]  -6929.64800980  
$$ SHIM_SETTING [31]  -5112.84822717  
$$ SHIM_SETTING [32]  21276.28838912  
$$ SHIM_SETTING [33]  3253.10298063   
$$ SHIM_SETTING [34]  -12955.23801930 
$$ SHIM_SETTING [35]  -12676.70000515 
$$ SHIM_SETTING [36]  -23881.72099154 
$$ SHIM_SETTING [37]  -1023.57184180  
$$ SHIM_SETTING [38]  4233.15957537   
$$ SHIM_SETTING [39]  -1686.94774335  
$$ SHIM_SETTING [40]  0.00000000      
##$RELAX= 
##$BRUKER FILE EXP=uxnmr.par
$$ ##TITLE= Parameter file, TopSpin 3.6.4
$$ ##JCAMPDX= 5.0
$$ ##DATATYPE= Parameter Values
$$ ##NPOINTS= 457	$$ modification sequence number
$$ ##ORIGIN= Bruker BioSpin GmbH
$$ ##OWNER= nmrsu
$$ $$ 2024-10-24 10:17:28.560 +0200  AVIII600@AV3600
$$ $$ C:/Bruker/TopSpin3.6.4/conf/instr/spect/uxnmr.par
$$ $$ process C:\Bruker\TopSpin3.6.4\prog\mod\cfserverav3.exe
$$ ##$ACB= 0
$$ ##$ACBTAT= (0..23)
$$ 0 72 88 50 50 0 0 0 0 0 0 0 0 0 0 0 0 0 0 0 0 0 0 0
$$ ##$ACBTBA= (0..23)
$$ 0 0 0 0 0 0 0 0 0 0 0 0 0 0 0 0 0 0 0 0 0 0 0 0
$$ ##$ACBTBLK= (0..23)
$$ 0 34 33 39 1 0 0 0 0 0 0 0 0 0 0 0 0 0 0 0 0 0 0 0
$$ ##$ACBTCTL= (0..23)
$$ 0 6 6 6 6 0 0 0 0 0 0 0 0 0 0 0 0 0 0 0 0 0 0 0
$$ ##$ACBTDI= (0..23)
$$ 0 -1779670018 -1779670018 -1779670018 -1779670252 0 0 0 0 0 0 0 0 0 0 0
$$ 0 0 0 0 0 0 0 0
$$ ##$ACBTDM= (0..23)
$$ 0 25 10 10 10 0 0 0 0 0 0 0 0 0 0 0 0 0 0 0 0 0 0 0
$$ ##$ACBTFHI= (0..23)
$$ 0 600 365 92 93 0 0 0 0 0 0 0 0 0 0 0 0 0 0 0 0 0 0 0
$$ ##$ACBTFL= (0..23)
$$ 0 248 248 88 8 0 0 0 0 0 0 0 0 0 0 0 0 0 0 0 0 0 0 0
$$ ##$ACBTFLO= (0..23)
$$ 0 180 6 30 91 0 0 0 0 0 0 0 0 0 0 0 0 0 0 0 0 0 0 0
$$ ##$ACBTINP= (0..23)
$$ 0 2 1 7 0 0 0 0 0 0 0 0 0 0 0 0 0 0 0 0 0 0 0 0
$$ ##$ACBTOUT= (0..23)
$$ 0 1 2 3 1 0 0 0 0 0 0 0 0 0 0 0 0 0 0 0 0 0 0 0
$$ ##$ACBTPO= (0..23)
$$ 0 100000 300000 150000 5000 0 0 0 0 0 0 0 0 0 0 0 0 0 0 0 0 0 0 0
$$ ##$ACBTPW= (0..23)
$$ 0 100 100 5 1000 0 0 0 0 0 0 0 0 0 0 0 0 0 0 0 0 0 0 0
$$ ##$ACBTSB= (0..23)
$$ 0 103 99 16 0 0 0 0 0 0 0 0 0 0 0 0 0 0 0 0 0 0 0 0
$$ ##$ACBTSDT= (0..23)
$$ 0 2 2 2 2 0 0 0 0 0 0 0 0 0 0 0 0 0 0 0 0 0 0 0
$$ ##$ACBTY= <no>
$$ ##$AMPDFLT= no
$$ ##$AQSBDCH= (0..95)
$$ 0 0 0 0 0 0 0 0 255 255 255 255 255 255 255 255 255 255 255 255 255 255
$$ 255 255 255 255 255 255 255 255 255 255 255 255 255 255 255 255 255 255
$$ 255 255 255 255 255 255 255 255 255 255 255 255 255 255 255 255 255 255
$$ 255 255 255 255 255 255 255 255 255 255 255 255 255 255 255 255 255 255
$$ 255 255 255 255 255 255 255 255 255 255 255 255 255 255 255 255 255 255
$$ 255 255
$$ ##$AQSBDHW= (0..95)
$$ 5 1 0 0 0 0 0 0 255 255 255 255 255 255 255 255 255 255 255 255 255 255
$$ 255 255 255 255 255 255 255 255 255 255 255 255 255 255 255 255 255 255
$$ 255 255 255 255 255 255 255 255 255 255 255 255 255 255 255 255 255 255
$$ 255 255 255 255 255 255 255 255 255 255 255 255 255 255 255 255 255 255
$$ 255 255 255 255 255 255 255 255 255 255 255 255 255 255 255 255 255 255
$$ 255 255
$$ ##$AQSBDID= (0..95)
$$ 82 88 83 83 86 86 66 66 255 255 255 255 255 255 255 255 255 255 255 255
$$ 255 255 255 255 255 255 255 255 255 255 255 255 255 255 255 255 255 255
$$ 255 255 255 255 255 255 255 255 255 255 255 255 255 255 255 255 255 255
$$ 255 255 255 255 255 255 255 255 255 255 255 255 255 255 255 255 255 255
$$ 255 255 255 255 255 255 255 255 255 255 255 255 255 255 255 255 255 255
$$ 255 255 255 255
$$ ##$AQSBDNO= (0..95)
$$ 1 1 1 2 1 2 1 1 255 255 255 255 255 255 255 255 255 255 255 255 255 255
$$ 255 255 255 255 255 255 255 255 255 255 255 255 255 255 255 255 255 255
$$ 255 255 255 255 255 255 255 255 255 255 255 255 255 255 255 255 255 255
$$ 255 255 255 255 255 255 255 255 255 255 255 255 255 255 255 255 255 255
$$ 255 255 255 255 255 255 255 255 255 255 255 255 255 255 255 255 255 255
$$ 255 255
$$ ##$AQSBDSL= (0..95)
$$ 2 3 4 4 13 14 255 1 255 255 255 255 255 255 255 255 255 255 255 255 255
$$ 255 255 255 255 255 255 255 255 255 255 255 255 255 255 255 255 255 255
$$ 255 255 255 255 255 255 255 255 255 255 255 255 255 255 255 255 255 255
$$ 255 255 255 255 255 255 255 255 255 255 255 255 255 255 255 255 255 255
$$ 255 255 255 255 255 255 255 255 255 255 255 255 255 255 255 255 255 255
$$ 255 255 255
$$ ##$AQSBDTY= (0..95)
$$ 67 214 50 50 147 145 216 7 255 255 255 255 255 255 255 255 255 255 255
$$ 255 255 255 255 255 255 255 255 255 255 255 255 255 255 255 255 255 255
$$ 255 255 255 255 255 255 255 255 255 255 255 255 255 255 255 255 255 255
$$ 255 255 255 255 255 255 255 255 255 255 255 255 255 255 255 255 255 255
$$ 255 255 255 255 255 255 255 255 255 255 255 255 255 255 255 255 255 255
$$ 255 255 255 255 255
$$ ##$AQSBUAD= (0..95)
$$ 16 52 36 37 160 161 32 32 255 255 255 255 255 255 255 255 255 255 255 255
$$ 255 255 255 255 255 255 255 255 255 255 255 255 255 255 255 255 255 255
$$ 255 255 255 255 255 255 255 255 255 255 255 255 255 255 255 255 255 255
$$ 255 255 255 255 255 255 255 255 255 255 255 255 255 255 255 255 255 255
$$ 255 255 255 255 255 255 255 255 255 255 255 255 255 255 255 255 255 255
$$ 255 255 255 255
$$ ##$AQSECL= (0..95)
$$ 0 2 2 2 0 1 1 255 255 255 255 255 255 255 255 255 255 255 255 255 255 255
$$ 255 255 255 255 255 255 255 255 255 255 255 255 255 255 255 255 255 255
$$ 255 255 255 255 255 255 255 255 255 255 255 255 255 255 255 255 255 255
$$ 255 255 255 255 255 255 255 255 255 255 255 255 255 255 255 255 255 255
$$ 255 255 255 255 255 255 255 255 255 255 255 255 255 255 255 255 255 255
$$ 255 255
$$ ##$AQSECLS= (0..95)
$$ 1 0 0 0 0 1 1 255 255 255 255 255 255 255 255 255 255 255 255 255 255 255
$$ 255 255 255 255 255 255 255 255 255 255 255 255 255 255 255 255 255 255
$$ 255 255 255 255 255 255 255 255 255 255 255 255 255 255 255 255 255 255
$$ 255 255 255 255 255 255 255 255 255 255 255 255 255 255 255 255 255 255
$$ 255 255 255 255 255 255 255 255 255 255 255 255 255 255 255 255 255 255
$$ 255 255
$$ ##$AQSETH1= <no>
$$ ##$AQSETH2= <no>
$$ ##$AQSSPLT= no
$$ ##$ATT19F= (0..1)
$$ 0 0
$$ ##$ATT1H= (0..1)
$$ 0 0
$$ ##$ATT3H= (0..1)
$$ 0 0
$$ ##$ATTX= (0..1)
$$ 0 0
$$ ##$ATTY= (0..1)
$$ 0 0
$$ ##$ATTZ= (0..1)
$$ 0 0
$$ ##$BACSAIR= yes
$$ ##$BACSCAP= 16
$$ ##$BACSDEL= 10
$$ ##$BACSFCM= no
$$ ##$BACSOPT= <>
$$ ##$BACSTY= <tty04>
$$ ##$BARPTY= <no>
$$ ##$BFREQ= 600.13
$$ ##$BGAETH= (0..9)
$$ <no> <no> <no> <no> <no> <no> <no> <no> <no> <no>
$$ ##$BIRDS= yes
$$ ##$BMPC= 0
$$ ##$BMPCTY= <no>
$$ ##$BPSUTY= <no>
$$ ##$BSMS= 2
$$ ##$BSMS19FLock= no
$$ ##$BSMSETH= <149.236.99.20>
$$ ##$BSMSTY= <no>
$$ ##$BgaChFac2= (0..7)
$$ 0 0 0 0 0 0 0 0
$$ ##$BgaChMap= (0..7)
$$ 0 0 0 0 0 0 0 0
$$ ##$BgaChMaxv= (0..7)
$$ 0 0 0 0 0 0 0 0
$$ ##$BgaChRouting= (0..63)
$$ 0 0 0 0 0 0 0 0 0 0 0 0 0 0 0 0 0 0 0 0 0 0 0 0 0 0 0 0 0 0 0 0 0 0 0 0
$$ 0 0 0 0 0 0 0 0 0 0 0 0 0 0 0 0 0 0 0 0 0 0 0 0 0 0 0 0
$$ ##$BgaChShimMap= (0..7)
$$ 0 0 0 0 0 0 0 0
$$ ##$BgaChShimMaxv= (0..7)
$$ 0 0 0 0 0 0 0 0
$$ ##$Bla01Eth= <149.236.99.254>
$$ ##$Bla01Nam= <BLAXH2H300/100/150 E 200-600MHZ>
$$ ##$Bla01PN= <W1345096>
$$ ##$Bla01SN= <0917>
$$ ##$Bla02Eth= <149.236.99.20>
$$ ##$Bla02Nam= <BSMS/2 LOCK TRANSCEIVER 600>
$$ ##$Bla02PN= <Z109890>
$$ ##$Bla02SN= <00308>
$$ ##$Bla03Eth= <no>
$$ ##$Bla03Nam= <>
$$ ##$Bla03PN= <>
$$ ##$Bla03SN= <>
$$ ##$Bla04Eth= <no>
$$ ##$Bla04Nam= <>
$$ ##$Bla04PN= <>
$$ ##$Bla04SN= <>
$$ ##$Bla05Eth= <no>
$$ ##$Bla05Nam= <>
$$ ##$Bla05PN= <>
$$ ##$Bla05SN= <>
$$ ##$Bla06Eth= <no>
$$ ##$Bla06Nam= <>
$$ ##$Bla06PN= <>
$$ ##$Bla06SN= <>
$$ ##$Bla07Eth= <no>
$$ ##$Bla07Nam= <>
$$ ##$Bla07PN= <>
$$ ##$Bla07SN= <>
$$ ##$Bla08Eth= <no>
$$ ##$Bla08Nam= <>
$$ ##$Bla08PN= <>
$$ ##$Bla08SN= <>
$$ ##$BlaEth= (0..9)
$$ <149.236.99.254> <149.236.99.20> <no> <no> <no> <no> <no> <no> <> <>
$$ ##$BlaNam= (0..9)
$$ <BLAXH2H300/100/150 E 200-600MHZ BSMS/2 LOCK TRANSCEIVER 600> <BSMS/2 LOCK TRANSCEIVER 600>
$$ <> <> <> <> <> <> <> <>
$$ ##$BlaPN= (0..9)
$$ <W1345096> <Z109890> <> <> <> <> <> <> <> <>
$$ ##$BlaSN= (0..9)
$$ <0917> <00308> <> <> <> <> <> <> <> <>
$$ ##$BsmsAuxEth= <no>
$$ ##$CFASMOD= (0..7)
$$ 1 1 1 1 1 1 1 1
$$ ##$CFASMUL= (0..7)
$$ 1 1 1 1 1 1 1 1
$$ ##$CNFTXDR= (0..7)
$$ 6 6 0 0 0 0 0 0
$$ ##$COMDIG2= 0
$$ ##$CPDBTY= <no>
$$ ##$CRCOTY= <no>
$$ ##$CSW1= (0..31)
$$ 2 2 0 7 0 0 0 0 0 0 0 0 0 0 0 0 0 0 0 0 0 0 0 0 0 0 0 0 0 0 0 0
$$ ##$CSW2= (0..31)
$$ 1 1 0 0 0 0 0 0 0 0 0 0 0 0 0 0 0 0 0 0 0 0 0 0 0 0 0 0 0 0 0 0
$$ ##$CSWNUM= (0..7)
$$ 4 1 0 0 0 0 0 0
$$ ##$ConsolePnSn= <>
$$ ##$CryoCoolUnitEth= <no>
$$ ##$CryoProAccPnSn= <>
$$ ##$Ctb1Eth= <no>
$$ ##$CubeEth= (0..7)
$$ <no> <no> <no> <no> <no> <no> <no> <no>
$$ ##$CustRegisterNo= <>
$$ ##$DATSTAT= no
$$ ##$DIGI140= (0..7)
$$ 0 0 0 0 0 0 0 0
$$ ##$DIGIB12= (0..7)
$$ 0 0 0 0 0 0 0 0
$$ ##$DIGIB16= (0..7)
$$ 0 0 0 0 0 0 0 0
$$ ##$DIGIFA= (0..7)
$$ 0 0 0 0 0 0 0 0
$$ ##$DIGIFOURIER= 0
$$ ##$DIGIHA= (0..7)
$$ 0 0 0 0 0 0 0 0
$$ ##$DIGIHAF= (0..7)
$$ 0 0 0 0 0 0 0 0
$$ ##$DIGIHRD= (0..7)
$$ 0 0 0 0 0 0 0 0
$$ ##$DIGIIA= (0..7)
$$ 0 0 0 0 0 0 0 0
$$ ##$DIGIO16= (0..7)
$$ 0 0 0 0 0 0 0 0
$$ ##$DIGISA= (0..7)
$$ 0 0 0 0 0 0 0 0
$$ ##$DIGISAF= (0..7)
$$ 0 0 0 0 0 0 0 0
$$ ##$DIGISL= (0..7)
$$ 0 0 0 0 0 0 0 0
$$ ##$DIGITYI= (0..7)
$$ 0 0 0 0 0 0 0 0
$$ ##$DIGITYP= (0..7)
$$ 0 0 0 0 0 0 0 0
$$ ##$DIGITZ= 0
$$ ##$DPPFAC= 1
$$ ##$DRMSETH= <no>
$$ ##$DRU= yes
$$ ##$DRUETH= (0..33)
$$ <no> <149.236.99.89> <no> <no> <no> <no> <no> <no> <no> <no> <no> <no>
$$ <no> <no> <no> <no> <no> <no> <no> <no> <no> <no> <no> <no> <no> <no> <no>
$$ <no> <no> <no> <no> <no> <no> <no>
$$ ##$Description= <Avance III 600 HD>
$$ ##$DppType= 0
$$ ##$FCUMEM= (0..7)
$$ 16777208 16777208 0 0 0 0 0 0
$$ ##$FCUPAL= (0..7)
$$ 0 0 0 0 0 0 0 0
$$ ##$FGSVTY= <no>
$$ ##$FQMIX= 0
$$ ##$FUNCMOD= <>
$$ ##$FourPeriBdEth= <no>
$$ ##$FourShimBdEth= <no>
$$ ##$FourierPicsCon= no
$$ ##$GCUTYPE= 10
$$ ##$GCUTYPE2= 0
$$ ##$GPREDEL= 0
$$ ##$GPSCUTY= <no>
$$ ##$GRADRES= 5
$$ ##$GTUTY= <no>
$$ ##$GcConn= (0..1)
$$ 1 0
$$ ##$GradAmpGain= (0..7)
$$ 0 0 0 0 0 0 0 0
$$ ##$GradAmpMaxCurX= (0..7)
$$ 0 0 0 0 0 0 0 0
$$ ##$GradAmpMaxCurY= (0..7)
$$ 0 0 0 0 0 0 0 0
$$ ##$GradAmpMaxCurZ= (0..7)
$$ 9.99999904632568 0 0 0 0 0 0 0
$$ ##$GradAmpName= (0..7)
$$ <GAB in BSMS> <> <> <> <> <> <> <>
$$ ##$GradAmpPN= (0..7)
$$ <> <> <> <> <> <> <> <>
$$ ##$GradAmpSN= (0..7)
$$ <> <> <> <> <> <> <> <>
$$ ##$GradAmpType= (0..7)
$$ 2 0 0 0 0 0 0 0
$$ ##$GradPowClkCtrl= 0
$$ ##$GradPowClkTime= 0
$$ ##$GradPowImax= 0
$$ ##$GradPowType= 0
$$ ##$GradPowVmax= 0
$$ ##$HDIETH= (0..5)
$$ <no> <no> <no> <no> <no> <no>
$$ ##$HFAC= 3
$$ ##$HPCU= 0
$$ ##$HPCUTY= <no>
$$ ##$HPTXLP= (0..3)
$$ -1 -1 -1 -1
$$ ##$HPTXPI= (0..3)
$$ 0 0 0 0
$$ ##$HPTXPO= (0..3)
$$ 0 0 0 0
$$ ##$HPTXTY= (0..3)
$$ 0 0 0 0
$$ ##$HpprCoverType= 2
$$ ##$IF451= 0
$$ ##$IFREQ= 1
$$ ##$INJPTY= <no>
$$ ##$INTFPR= 0
$$ ##$IPSOETH= <149.236.99.253>
$$ ##$IPSOTYPE= 1
$$ ##$LDUETH= <no>
$$ ##$LOCKCONF= <DLMT>
$$ ##$LOCKTY= <no>
$$ ##$LOCSWID= 0
$$ ##$LOCSWIF= 0
$$ ##$LVDSSPLITETH= (0..5)
$$ <no> <no> <no> <no> <no> <no>
$$ ##$Location= <Uni Hamburg>
$$ ##$LtMasEth= <no>
$$ ##$LtMasType= 0
$$ ##$M2FAC= 0
$$ ##$MAS= 0
$$ ##$MASETIME= 10
$$ ##$MASITIME= 10
$$ ##$MASTY= <no>
$$ ##$MAS_CT= 5
$$ ##$MAS_SG= 0
$$ ##$MAS_TO= 0
$$ ##$MEMPRM= 0
$$ ##$MHFAC= 0
$$ ##$MXFAC= 0
$$ ##$MagnCoilPnSn= <>
$$ ##$MagnDewarPnSn= <>
$$ ##$MasEth= <no>
$$ ##$NAMPD= (0..17)
$$ <> <HPLNA 19F1H> <2H> <XBB19F 2HS> <> <> <> <> <> <> <> <> <> <> <> <>
$$ <> <>
$$ ##$NFCU= 2
$$ ##$NFRED= 0
$$ ##$NMRCH= 2
$$ ##$NMRMEM= 16384
$$ ##$NPSGU= 0
$$ ##$NRCU= 1
$$ ##$NROUT= 0
$$ ##$NSGU= 2
$$ ##$OrderNo= <10073814>
$$ ##$PAMPF1= (0..15)
$$ 75 56 96 64 0 0 0 0 0 0 0 0 0 0 0 0
$$ ##$PAMPF2= (0..15)
$$ 0 0 0 0 0 0 0 0 0 0 0 0 0 0 0 0
$$ ##$PAMPF3= (0..15)
$$ 0 0 0 0 0 0 0 0 0 0 0 0 0 0 0 0
$$ ##$PAMPF4= (0..15)
$$ 0 0 0 0 0 0 0 0 0 0 0 0 0 0 0 0
$$ ##$PAMPF5= (0..15)
$$ 0 0 0 0 0 0 0 0 0 0 0 0 0 0 0 0
$$ ##$PAMPF6= (0..15)
$$ 0 0 0 0 0 0 0 0 0 0 0 0 0 0 0 0
$$ ##$PAMPF7= (0..15)
$$ 0 0 0 0 0 0 0 0 0 0 0 0 0 0 0 0
$$ ##$PAMPF8= (0..15)
$$ 0 0 0 0 0 0 0 0 0 0 0 0 0 0 0 0
$$ ##$PH4= 0
$$ ##$PHF4TY= <no>
$$ ##$POWCHK= yes
$$ ##$PRAMD1= (0..7)
$$ 6 0 0 1610612736 0 0 0 0
$$ ##$PRAMD10= (0..7)
$$ 0 0 0 0 0 0 0 0
$$ ##$PRAMD11= (0..7)
$$ 0 0 0 0 0 0 0 0
$$ ##$PRAMD12= (0..7)
$$ 0 0 0 0 0 0 0 0
$$ ##$PRAMD13= (0..7)
$$ 0 0 0 0 0 0 0 0
$$ ##$PRAMD14= (0..7)
$$ 0 0 0 0 0 0 0 0
$$ ##$PRAMD15= (0..7)
$$ 0 0 0 0 0 0 0 0
$$ ##$PRAMD16= (0..7)
$$ 0 0 0 0 0 0 0 0
$$ ##$PRAMD17= (0..7)
$$ 0 0 0 0 0 0 0 0
$$ ##$PRAMD18= (0..7)
$$ 0 0 0 0 0 0 0 0
$$ ##$PRAMD19= (0..7)
$$ 0 0 0 0 0 0 0 0
$$ ##$PRAMD2= (0..7)
$$ 0 1048576 0 536870912 0 1048576 0 536870912
$$ ##$PRAMD20= (0..7)
$$ 0 0 0 0 0 0 0 0
$$ ##$PRAMD21= (0..7)
$$ 0 0 0 0 0 0 0 0
$$ ##$PRAMD3= (0..7)
$$ 2147483644 2131230719 2147483647 603979775 0 0 0 0
$$ ##$PRAMD4= (0..7)
$$ 0 0 0 0 0 0 0 0
$$ ##$PRAMD5= (0..7)
$$ 0 0 0 0 0 0 0 0
$$ ##$PRAMD6= (0..7)
$$ 0 0 0 0 0 0 0 0
$$ ##$PRAMD7= (0..7)
$$ 0 0 0 0 0 0 0 0
$$ ##$PRAMD8= (0..7)
$$ 0 0 0 0 0 0 0 0
$$ ##$PRAMD9= (0..7)
$$ 0 0 0 0 0 0 0 0
$$ ##$PRAMLED= (0..1)
$$ 0 0
$$ ##$PRAMP= (0..9)
$$ <00000000> <tty10> <no> <no> <no> <no> <no> <no> <no> <00000000>
$$ ##$PRAMPTP= 1
$$ ##$PREEMPTYPE= 0
$$ ##$PREPTY= <no>
$$ ##$PREREC= (0..15)
$$ 0 1 1 1 0 0 0 0 0 0 0 0 0 0 0 0
$$ ##$PRESHLD= 0
$$ ##$PTS160= -1
$$ ##$PTSA2X= (0..7)
$$ 0 0 0 0 0 0 0 0
$$ ##$PTSF2X= (0..7)
$$ 0 0 0 0 0 0 0 0
$$ ##$PTSFMX= (0..19)
$$ 649.9 649.9 0 0 0 0 0 0 0 0 0 0 0 0 0 0 0 0 0 0
$$ ##$PULCHK= no
$$ ##$PerMagATempSens= no
$$ ##$PerMagEth= <no>
$$ ##$PerMagFluxSens= no
$$ ##$PerMagMTempSens= no
$$ ##$PramDutyCycPerc= (0..15)
$$ 4 2 2 0 0 0 0 0 0 0 0 0 0 0 0 0
$$ ##$PramPeakPowerW= (0..15)
$$ 4000 500 500 0 0 0 0 0 0 0 0 0 0 0 0 0
$$ ##$PramPowerDetect= (0..15)
$$ 1 0 0 0 0 0 0 0 0 0 0 0 0 0 0 0
$$ ##$PramPowerSwitch= (0..15)
$$ 0 0 0 0 0 0 0 0 0 0 0 0 0 0 0 0
$$ ##$PramPulWidthMs= (0..15)
$$ 10 0.1 0.1 0 0 0 0 0 0 0 0 0 0 0 0 0
$$ ##$PreampMod01PN= <Z103205>
$$ ##$PreampMod01SN= <00143>
$$ ##$PreampMod02PN= <Z003473>
$$ ##$PreampMod02SN= <00954>
$$ ##$PreampMod03PN= <Z003506>
$$ ##$PreampMod03SN= <01129>
$$ ##$PreampMod04PN= <>
$$ ##$PreampMod04SN= <>
$$ ##$PreampMod05PN= <>
$$ ##$PreampMod05SN= <>
$$ ##$PreampMod06PN= <>
$$ ##$PreampMod06SN= <>
$$ ##$PreampMod07PN= <>
$$ ##$PreampMod07SN= <>
$$ ##$PreampMod08PN= <>
$$ ##$PreampMod08SN= <>
$$ ##$PreampMod09PN= <>
$$ ##$PreampMod09SN= <>
$$ ##$PreampMod10PN= <>
$$ ##$PreampMod10SN= <>
$$ ##$PreampMod11PN= <>
$$ ##$PreampMod11SN= <>
$$ ##$PreampMod12PN= <>
$$ ##$PreampMod12SN= <>
$$ ##$PreampMod13PN= <>
$$ ##$PreampMod13SN= <>
$$ ##$PreampMod14PN= <>
$$ ##$PreampMod14SN= <>
$$ ##$PreampMod15PN= <>
$$ ##$PreampMod15SN= <>
$$ ##$PreampMod16PN= <>
$$ ##$PreampMod16SN= <>
$$ ##$PreampModBisDat= (0..15)
$$ 20120822 20120803 20120818 0 0 0 0 0 0 0 0 0 0 0 0 0
$$ ##$PreampModPN= (0..17)
$$ <Z103205> <Z003473> <Z003506> <> <> <> <> <> <> <> <> <> <> <> <> <> <>
$$ <>
$$ ##$PreampModSN= (0..17)
$$ <00143> <00954> <01129> <> <> <> <> <> <> <> <> <> <> <> <> <> <> <>
$$ ##$ProdigyEth= <no>
$$ ##$RCUCDS= (0..7)
$$ 0 0 0 0 0 0 0 0
$$ ##$RCUCFS= (0..7)
$$ 0 0 0 0 0 0 0 0
$$ ##$RCUCSS= (0..7)
$$ 0 0 0 0 0 0 0 0
$$ ##$RCUI2C1= (0..7)
$$ 0 0 0 0 0 0 0 0
$$ ##$RCUI2C2= (0..7)
$$ 0 0 0 0 0 0 0 0
$$ ##$RCUI2C3= (0..7)
$$ 0 0 0 0 0 0 0 0
$$ ##$RCUI2C4= (0..7)
$$ 0 0 0 0 0 0 0 0
$$ ##$RCUI2C5= (0..7)
$$ 0 0 0 0 0 0 0 0
$$ ##$RCUI2C6= (0..7)
$$ 0 0 0 0 0 0 0 0
$$ ##$RCUI2C7= (0..7)
$$ 0 0 0 0 0 0 0 0
$$ ##$RCUI2C8= (0..7)
$$ 0 0 0 0 0 0 0 0
$$ ##$RDCU= 0
$$ ##$RFSINPUT= (0..1)
$$ 0 0
$$ ##$RFSVTY= <no>
$$ ##$RGTYPE= (0..31)
$$ 9 0 0 0 0 0 0 0 0 0 0 0 0 0 0 0 0 0 0 0 0 0 0 0 0 0 0 0 0 0 0 0
$$ ##$RG_max= (0..31)
$$ 2050 -1 -1 -1 -1 -1 -1 -1 -1 -1 -1 -1 -1 -1 -1 -1 -1 -1 -1 -1 -1 -1 -1
$$ -1 -1 -1 -1 -1 -1 -1 -1 -1
$$ ##$RG_min= (0..31)
$$ 0.25 -1 -1 -1 -1 -1 -1 -1 -1 -1 -1 -1 -1 -1 -1 -1 -1 -1 -1 -1 -1 -1 -1
$$ -1 -1 -1 -1 -1 -1 -1 -1 -1
$$ ##$RG_tab1= (0..255)
$$ 0.25 0.28 0.32 0.35 0.4 0.44 0.5 0.56 0.64 0.7 0.8 0.89 1 1.12 1.28 1.4
$$ 1.6 1.78 2 2.25 2.56 2.8 3.2 3.56 4 4.5 5 5.6 6.35 7.12 8 9 10 11.3 12.7
$$ 14.2 16 18 20.2 22.6 25.4 28.5 32 36 40.3 45.2 50.8 57 64 71.8 80.6 90.5
$$ 101 114 128 144 161 181 203 228 256 287 322 362 406 456 512 575 645 724
$$ 812 912 1030 1150 1290 1440 1620 1820 2050 -1 -1 -1 -1 -1 -1 -1 -1 -1 -1
$$ -1 -1 -1 -1 -1 -1 -1 -1 -1 -1 -1 -1 -1 -1 -1 -1 -1 -1 -1 -1 -1 -1 -1 -1
$$ -1 -1 -1 -1 -1 -1 -1 -1 -1 -1 -1 -1 -1 -1 -1 -1 -1 -1 -1 -1 -1 -1 -1 -1
$$ -1 -1 -1 -1 -1 -1 -1 -1 -1 -1 -1 -1 -1 -1 -1 -1 -1 -1 -1 -1 -1 -1 -1 -1
$$ -1 -1 -1 -1 -1 -1 -1 -1 -1 -1 -1 -1 -1 -1 -1 -1 -1 -1 -1 -1 -1 -1 -1 -1
$$ -1 -1 -1 -1 -1 -1 -1 -1 -1 -1 -1 -1 -1 -1 -1 -1 -1 -1 -1 -1 -1 -1 -1 -1
$$ -1 -1 -1 -1 -1 -1 -1 -1 -1 -1 -1 -1 -1 -1 -1 -1 -1 -1 -1 -1 -1 -1 -1 -1
$$ -1 -1 -1 -1 -1 -1 -1 -1 -1 -1 -1 -1 -1 -1 -1 -1 -1 -1 -1 -1 -1 -1 -1
$$ ##$RG_tab2= (0..255)
$$ -1 -1 -1 -1 -1 -1 -1 -1 -1 -1 -1 -1 -1 -1 -1 -1 -1 -1 -1 -1 -1 -1 -1 -1
$$ -1 -1 -1 -1 -1 -1 -1 -1 -1 -1 -1 -1 -1 -1 -1 -1 -1 -1 -1 -1 -1 -1 -1 -1
$$ -1 -1 -1 -1 -1 -1 -1 -1 -1 -1 -1 -1 -1 -1 -1 -1 -1 -1 -1 -1 -1 -1 -1 -1
$$ -1 -1 -1 -1 -1 -1 -1 -1 -1 -1 -1 -1 -1 -1 -1 -1 -1 -1 -1 -1 -1 -1 -1 -1
$$ -1 -1 -1 -1 -1 -1 -1 -1 -1 -1 -1 -1 -1 -1 -1 -1 -1 -1 -1 -1 -1 -1 -1 -1
$$ -1 -1 -1 -1 -1 -1 -1 -1 -1 -1 -1 -1 -1 -1 -1 -1 -1 -1 -1 -1 -1 -1 -1 -1
$$ -1 -1 -1 -1 -1 -1 -1 -1 -1 -1 -1 -1 -1 -1 -1 -1 -1 -1 -1 -1 -1 -1 -1 -1
$$ -1 -1 -1 -1 -1 -1 -1 -1 -1 -1 -1 -1 -1 -1 -1 -1 -1 -1 -1 -1 -1 -1 -1 -1
$$ -1 -1 -1 -1 -1 -1 -1 -1 -1 -1 -1 -1 -1 -1 -1 -1 -1 -1 -1 -1 -1 -1 -1 -1
$$ -1 -1 -1 -1 -1 -1 -1 -1 -1 -1 -1 -1 -1 -1 -1 -1 -1 -1 -1 -1 -1 -1 -1 -1
$$ -1 -1 -1 -1 -1 -1 -1 -1 -1 -1 -1 -1 -1 -1 -1 -1
$$ ##$RG_tab3= (0..255)
$$ -1 -1 -1 -1 -1 -1 -1 -1 -1 -1 -1 -1 -1 -1 -1 -1 -1 -1 -1 -1 -1 -1 -1 -1
$$ -1 -1 -1 -1 -1 -1 -1 -1 -1 -1 -1 -1 -1 -1 -1 -1 -1 -1 -1 -1 -1 -1 -1 -1
$$ -1 -1 -1 -1 -1 -1 -1 -1 -1 -1 -1 -1 -1 -1 -1 -1 -1 -1 -1 -1 -1 -1 -1 -1
$$ -1 -1 -1 -1 -1 -1 -1 -1 -1 -1 -1 -1 -1 -1 -1 -1 -1 -1 -1 -1 -1 -1 -1 -1
$$ -1 -1 -1 -1 -1 -1 -1 -1 -1 -1 -1 -1 -1 -1 -1 -1 -1 -1 -1 -1 -1 -1 -1 -1
$$ -1 -1 -1 -1 -1 -1 -1 -1 -1 -1 -1 -1 -1 -1 -1 -1 -1 -1 -1 -1 -1 -1 -1 -1
$$ -1 -1 -1 -1 -1 -1 -1 -1 -1 -1 -1 -1 -1 -1 -1 -1 -1 -1 -1 -1 -1 -1 -1 -1
$$ -1 -1 -1 -1 -1 -1 -1 -1 -1 -1 -1 -1 -1 -1 -1 -1 -1 -1 -1 -1 -1 -1 -1 -1
$$ -1 -1 -1 -1 -1 -1 -1 -1 -1 -1 -1 -1 -1 -1 -1 -1 -1 -1 -1 -1 -1 -1 -1 -1
$$ -1 -1 -1 -1 -1 -1 -1 -1 -1 -1 -1 -1 -1 -1 -1 -1 -1 -1 -1 -1 -1 -1 -1 -1
$$ -1 -1 -1 -1 -1 -1 -1 -1 -1 -1 -1 -1 -1 -1 -1 -1
$$ ##$RG_tab4= (0..255)
$$ -1 -1 -1 -1 -1 -1 -1 -1 -1 -1 -1 -1 -1 -1 -1 -1 -1 -1 -1 -1 -1 -1 -1 -1
$$ -1 -1 -1 -1 -1 -1 -1 -1 -1 -1 -1 -1 -1 -1 -1 -1 -1 -1 -1 -1 -1 -1 -1 -1
$$ -1 -1 -1 -1 -1 -1 -1 -1 -1 -1 -1 -1 -1 -1 -1 -1 -1 -1 -1 -1 -1 -1 -1 -1
$$ -1 -1 -1 -1 -1 -1 -1 -1 -1 -1 -1 -1 -1 -1 -1 -1 -1 -1 -1 -1 -1 -1 -1 -1
$$ -1 -1 -1 -1 -1 -1 -1 -1 -1 -1 -1 -1 -1 -1 -1 -1 -1 -1 -1 -1 -1 -1 -1 -1
$$ -1 -1 -1 -1 -1 -1 -1 -1 -1 -1 -1 -1 -1 -1 -1 -1 -1 -1 -1 -1 -1 -1 -1 -1
$$ -1 -1 -1 -1 -1 -1 -1 -1 -1 -1 -1 -1 -1 -1 -1 -1 -1 -1 -1 -1 -1 -1 -1 -1
$$ -1 -1 -1 -1 -1 -1 -1 -1 -1 -1 -1 -1 -1 -1 -1 -1 -1 -1 -1 -1 -1 -1 -1 -1
$$ -1 -1 -1 -1 -1 -1 -1 -1 -1 -1 -1 -1 -1 -1 -1 -1 -1 -1 -1 -1 -1 -1 -1 -1
$$ -1 -1 -1 -1 -1 -1 -1 -1 -1 -1 -1 -1 -1 -1 -1 -1 -1 -1 -1 -1 -1 -1 -1 -1
$$ -1 -1 -1 -1 -1 -1 -1 -1 -1 -1 -1 -1 -1 -1 -1 -1
$$ ##$RG_tab5= (0..255)
$$ -1 -1 -1 -1 -1 -1 -1 -1 -1 -1 -1 -1 -1 -1 -1 -1 -1 -1 -1 -1 -1 -1 -1 -1
$$ -1 -1 -1 -1 -1 -1 -1 -1 -1 -1 -1 -1 -1 -1 -1 -1 -1 -1 -1 -1 -1 -1 -1 -1
$$ -1 -1 -1 -1 -1 -1 -1 -1 -1 -1 -1 -1 -1 -1 -1 -1 -1 -1 -1 -1 -1 -1 -1 -1
$$ -1 -1 -1 -1 -1 -1 -1 -1 -1 -1 -1 -1 -1 -1 -1 -1 -1 -1 -1 -1 -1 -1 -1 -1
$$ -1 -1 -1 -1 -1 -1 -1 -1 -1 -1 -1 -1 -1 -1 -1 -1 -1 -1 -1 -1 -1 -1 -1 -1
$$ -1 -1 -1 -1 -1 -1 -1 -1 -1 -1 -1 -1 -1 -1 -1 -1 -1 -1 -1 -1 -1 -1 -1 -1
$$ -1 -1 -1 -1 -1 -1 -1 -1 -1 -1 -1 -1 -1 -1 -1 -1 -1 -1 -1 -1 -1 -1 -1 -1
$$ -1 -1 -1 -1 -1 -1 -1 -1 -1 -1 -1 -1 -1 -1 -1 -1 -1 -1 -1 -1 -1 -1 -1 -1
$$ -1 -1 -1 -1 -1 -1 -1 -1 -1 -1 -1 -1 -1 -1 -1 -1 -1 -1 -1 -1 -1 -1 -1 -1
$$ -1 -1 -1 -1 -1 -1 -1 -1 -1 -1 -1 -1 -1 -1 -1 -1 -1 -1 -1 -1 -1 -1 -1 -1
$$ -1 -1 -1 -1 -1 -1 -1 -1 -1 -1 -1 -1 -1 -1 -1 -1
$$ ##$RG_tab6= (0..255)
$$ -1 -1 -1 -1 -1 -1 -1 -1 -1 -1 -1 -1 -1 -1 -1 -1 -1 -1 -1 -1 -1 -1 -1 -1
$$ -1 -1 -1 -1 -1 -1 -1 -1 -1 -1 -1 -1 -1 -1 -1 -1 -1 -1 -1 -1 -1 -1 -1 -1
$$ -1 -1 -1 -1 -1 -1 -1 -1 -1 -1 -1 -1 -1 -1 -1 -1 -1 -1 -1 -1 -1 -1 -1 -1
$$ -1 -1 -1 -1 -1 -1 -1 -1 -1 -1 -1 -1 -1 -1 -1 -1 -1 -1 -1 -1 -1 -1 -1 -1
$$ -1 -1 -1 -1 -1 -1 -1 -1 -1 -1 -1 -1 -1 -1 -1 -1 -1 -1 -1 -1 -1 -1 -1 -1
$$ -1 -1 -1 -1 -1 -1 -1 -1 -1 -1 -1 -1 -1 -1 -1 -1 -1 -1 -1 -1 -1 -1 -1 -1
$$ -1 -1 -1 -1 -1 -1 -1 -1 -1 -1 -1 -1 -1 -1 -1 -1 -1 -1 -1 -1 -1 -1 -1 -1
$$ -1 -1 -1 -1 -1 -1 -1 -1 -1 -1 -1 -1 -1 -1 -1 -1 -1 -1 -1 -1 -1 -1 -1 -1
$$ -1 -1 -1 -1 -1 -1 -1 -1 -1 -1 -1 -1 -1 -1 -1 -1 -1 -1 -1 -1 -1 -1 -1 -1
$$ -1 -1 -1 -1 -1 -1 -1 -1 -1 -1 -1 -1 -1 -1 -1 -1 -1 -1 -1 -1 -1 -1 -1 -1
$$ -1 -1 -1 -1 -1 -1 -1 -1 -1 -1 -1 -1 -1 -1 -1 -1
$$ ##$RG_tab7= (0..255)
$$ -1 -1 -1 -1 -1 -1 -1 -1 -1 -1 -1 -1 -1 -1 -1 -1 -1 -1 -1 -1 -1 -1 -1 -1
$$ -1 -1 -1 -1 -1 -1 -1 -1 -1 -1 -1 -1 -1 -1 -1 -1 -1 -1 -1 -1 -1 -1 -1 -1
$$ -1 -1 -1 -1 -1 -1 -1 -1 -1 -1 -1 -1 -1 -1 -1 -1 -1 -1 -1 -1 -1 -1 -1 -1
$$ -1 -1 -1 -1 -1 -1 -1 -1 -1 -1 -1 -1 -1 -1 -1 -1 -1 -1 -1 -1 -1 -1 -1 -1
$$ -1 -1 -1 -1 -1 -1 -1 -1 -1 -1 -1 -1 -1 -1 -1 -1 -1 -1 -1 -1 -1 -1 -1 -1
$$ -1 -1 -1 -1 -1 -1 -1 -1 -1 -1 -1 -1 -1 -1 -1 -1 -1 -1 -1 -1 -1 -1 -1 -1
$$ -1 -1 -1 -1 -1 -1 -1 -1 -1 -1 -1 -1 -1 -1 -1 -1 -1 -1 -1 -1 -1 -1 -1 -1
$$ -1 -1 -1 -1 -1 -1 -1 -1 -1 -1 -1 -1 -1 -1 -1 -1 -1 -1 -1 -1 -1 -1 -1 -1
$$ -1 -1 -1 -1 -1 -1 -1 -1 -1 -1 -1 -1 -1 -1 -1 -1 -1 -1 -1 -1 -1 -1 -1 -1
$$ -1 -1 -1 -1 -1 -1 -1 -1 -1 -1 -1 -1 -1 -1 -1 -1 -1 -1 -1 -1 -1 -1 -1 -1
$$ -1 -1 -1 -1 -1 -1 -1 -1 -1 -1 -1 -1 -1 -1 -1 -1
$$ ##$RG_tab8= (0..255)
$$ -1 -1 -1 -1 -1 -1 -1 -1 -1 -1 -1 -1 -1 -1 -1 -1 -1 -1 -1 -1 -1 -1 -1 -1
$$ -1 -1 -1 -1 -1 -1 -1 -1 -1 -1 -1 -1 -1 -1 -1 -1 -1 -1 -1 -1 -1 -1 -1 -1
$$ -1 -1 -1 -1 -1 -1 -1 -1 -1 -1 -1 -1 -1 -1 -1 -1 -1 -1 -1 -1 -1 -1 -1 -1
$$ -1 -1 -1 -1 -1 -1 -1 -1 -1 -1 -1 -1 -1 -1 -1 -1 -1 -1 -1 -1 -1 -1 -1 -1
$$ -1 -1 -1 -1 -1 -1 -1 -1 -1 -1 -1 -1 -1 -1 -1 -1 -1 -1 -1 -1 -1 -1 -1 -1
$$ -1 -1 -1 -1 -1 -1 -1 -1 -1 -1 -1 -1 -1 -1 -1 -1 -1 -1 -1 -1 -1 -1 -1 -1
$$ -1 -1 -1 -1 -1 -1 -1 -1 -1 -1 -1 -1 -1 -1 -1 -1 -1 -1 -1 -1 -1 -1 -1 -1
$$ -1 -1 -1 -1 -1 -1 -1 -1 -1 -1 -1 -1 -1 -1 -1 -1 -1 -1 -1 -1 -1 -1 -1 -1
$$ -1 -1 -1 -1 -1 -1 -1 -1 -1 -1 -1 -1 -1 -1 -1 -1 -1 -1 -1 -1 -1 -1 -1 -1
$$ -1 -1 -1 -1 -1 -1 -1 -1 -1 -1 -1 -1 -1 -1 -1 -1 -1 -1 -1 -1 -1 -1 -1 -1
$$ -1 -1 -1 -1 -1 -1 -1 -1 -1 -1 -1 -1 -1 -1 -1 -1
$$ ##$RG_tabA= (0..255)
$$ 0.25 0.28 0.32 0.35 0.4 0.44 0.5 0.56 0.64 0.7 0.8 0.89 1 1.12 1.28 1.4
$$ 1.6 1.78 2 2.25 2.56 2.8 3.2 3.56 4 4.5 5 5.6 6.35 7.12 8 9 10 11.3 12.7
$$ 14.2 16 18 20.2 22.6 25.4 28.5 32 36 40.3 45.2 50.8 57 64 71.8 80.6 90.5
$$ 101 114 128 144 161 181 203 228 256 287 322 362 406 456 512 575 645 724
$$ 812 912 1030 1150 1290 1440 1620 1820 2050 -1 -1 -1 -1 -1 -1 -1 -1 -1 -1
$$ -1 -1 -1 -1 -1 -1 -1 -1 -1 -1 -1 -1 -1 -1 -1 -1 -1 -1 -1 -1 -1 -1 -1 -1
$$ -1 -1 -1 -1 -1 -1 -1 -1 -1 -1 -1 -1 -1 -1 -1 -1 -1 -1 -1 -1 -1 -1 -1 -1
$$ -1 -1 -1 -1 -1 -1 -1 -1 -1 -1 -1 -1 -1 -1 -1 -1 -1 -1 -1 -1 -1 -1 -1 -1
$$ -1 -1 -1 -1 -1 -1 -1 -1 -1 -1 -1 -1 -1 -1 -1 -1 -1 -1 -1 -1 -1 -1 -1 -1
$$ -1 -1 -1 -1 -1 -1 -1 -1 -1 -1 -1 -1 -1 -1 -1 -1 -1 -1 -1 -1 -1 -1 -1 -1
$$ -1 -1 -1 -1 -1 -1 -1 -1 -1 -1 -1 -1 -1 -1 -1 -1 -1 -1 -1 -1 -1 -1 -1 -1
$$ -1 -1 -1 -1 -1 -1 -1 -1 -1 -1 -1 -1 -1 -1 -1 -1 -1 -1 -1 -1 -1 -1 -1
$$ ##$ROBOTTY= <no>
$$ ##$ROUT14= (0..7)
$$ 0 0 0 0 0 0 0 0
$$ ##$ROUTER= -1
$$ ##$RX22TY= <no>
$$ ##$RXFMAX= (0..7)
$$ 647.5 -1 -1 -1 -1 -1 -1 -1
$$ ##$RXFMIN= (0..7)
$$ 5 -1 -1 -1 -1 -1 -1 -1
$$ ##$RXINTLV= (0..7)
$$ 1 0 0 0 0 0 0 0
$$ ##$RXMSTY= <no>
$$ ##$RockSwitchEth= <no>
$$ ##$SCMTY= <no>
$$ ##$SGUC1= (0..15)
$$ 17 18 0 0 0 0 0 0 0 0 0 0 0 0 0 0
$$ ##$SGUC2= (0..15)
$$ 20 256 0 0 0 0 0 0 0 0 0 0 0 0 0 0
$$ ##$SLCBCONF= <SHNV>
$$ ##$SPECTR= 10
$$ ##$SY2FLAG= 0
$$ ##$SYNCTRIG= 11
$$ ##$SamChgEth= (0..3)
$$ <149.236.99.173> <no> <no> <no>
$$ ##$SamChgProtocol= (0..3)
$$ <SOAP> <> <> <>
$$ ##$ServiceNo= <>
$$ ##$Sgu1PowerLevels= (0..7)
$$ 90 74 58 42 26 10 0 0
$$ ##$Sgu2PowerLevels= (0..7)
$$ 90 74 58 42 26 10 0 0
$$ ##$Sgu3PowerLevels= (0..7)
$$ 0 0 0 0 0 0 0 0
$$ ##$Sgu4PowerLevels= (0..7)
$$ 0 0 0 0 0 0 0 0
$$ ##$Sgu5PowerLevels= (0..7)
$$ 0 0 0 0 0 0 0 0
$$ ##$Sgu6PowerLevels= (0..7)
$$ 0 0 0 0 0 0 0 0
$$ ##$Sgu7PowerLevels= (0..7)
$$ 0 0 0 0 0 0 0 0
$$ ##$Sgu8PowerLevels= (0..7)
$$ 0 0 0 0 0 0 0 0
$$ ##$SguType= 3
$$ ##$ShimMaxVal= 32760
$$ ##$ShimPow1Ch2Sh= (0..38)
$$ 0 0 0 0 0 0 0 0 0 0 0 0 0 0 0 0 0 0 0 0 0 0 0 0 0 0 0 0 0 0 0 0 0 0 0 0
$$ 0 0 0
$$ ##$ShimPow1Imax= (0..38)
$$ 0 0 0 0 0 0 0 0 0 0 0 0 0 0 0 0 0 0 0 0 0 0 0 0 0 0 0 0 0 0 0 0 0 0 0 0
$$ 0 0 0
$$ ##$ShimPow1NChan= 0
$$ ##$ShimPow1TotIMax= 0
$$ ##$ShimPow1Vmax= (0..38)
$$ 0 0 0 0 0 0 0 0 0 0 0 0 0 0 0 0 0 0 0 0 0 0 0 0 0 0 0 0 0 0 0 0 0 0 0 0
$$ 0 0 0
$$ ##$ShimPow2Ch2Sh= (0..38)
$$ 0 0 0 0 0 0 0 0 0 0 0 0 0 0 0 0 0 0 0 0 0 0 0 0 0 0 0 0 0 0 0 0 0 0 0 0
$$ 0 0 0
$$ ##$ShimPow2Imax= (0..38)
$$ 0 0 0 0 0 0 0 0 0 0 0 0 0 0 0 0 0 0 0 0 0 0 0 0 0 0 0 0 0 0 0 0 0 0 0 0
$$ 0 0 0
$$ ##$ShimPow2NChan= 0
$$ ##$ShimPow2TotIMax= 0
$$ ##$ShimPow2Vmax= (0..38)
$$ 0 0 0 0 0 0 0 0 0 0 0 0 0 0 0 0 0 0 0 0 0 0 0 0 0 0 0 0 0 0 0 0 0 0 0 0
$$ 0 0 0
$$ ##$ShimPow3Ch2Sh= (0..38)
$$ 0 0 0 0 0 0 0 0 0 0 0 0 0 0 0 0 0 0 0 0 0 0 0 0 0 0 0 0 0 0 0 0 0 0 0 0
$$ 0 0 0
$$ ##$ShimPow3Imax= (0..38)
$$ 0 0 0 0 0 0 0 0 0 0 0 0 0 0 0 0 0 0 0 0 0 0 0 0 0 0 0 0 0 0 0 0 0 0 0 0
$$ 0 0 0
$$ ##$ShimPow3NChan= 0
$$ ##$ShimPow3TotIMax= 0
$$ ##$ShimPow3Vmax= (0..38)
$$ 0 0 0 0 0 0 0 0 0 0 0 0 0 0 0 0 0 0 0 0 0 0 0 0 0 0 0 0 0 0 0 0 0 0 0 0
$$ 0 0 0
$$ ##$ShimPow4Ch2Sh= (0..38)
$$ 0 0 0 0 0 0 0 0 0 0 0 0 0 0 0 0 0 0 0 0 0 0 0 0 0 0 0 0 0 0 0 0 0 0 0 0
$$ 0 0 0
$$ ##$ShimPow4Imax= (0..38)
$$ 0 0 0 0 0 0 0 0 0 0 0 0 0 0 0 0 0 0 0 0 0 0 0 0 0 0 0 0 0 0 0 0 0 0 0 0
$$ 0 0 0
$$ ##$ShimPow4NChan= 0
$$ ##$ShimPow4TotIMax= 0
$$ ##$ShimPow4Vmax= (0..38)
$$ 0 0 0 0 0 0 0 0 0 0 0 0 0 0 0 0 0 0 0 0 0 0 0 0 0 0 0 0 0 0 0 0 0 0 0 0
$$ 0 0 0
$$ ##$ShimPowMaxUA= (0..63)
$$ 130000 130000 130000 130000 130000 130000 130000 130000 130000 130000 130000
$$ 130000 130000 130000 130000 130000 130000 130000 130000 130000 130000 130000
$$ 130000 130000 130000 130000 130000 130000 130000 130000 130000 130000 130000
$$ 130000 130000 130000 130000 130000 130000 130000 0 0 0 0 0 0 0 0 0 0 0
$$ 0 0 0 0 0 0 0 0 0 0 0 0 0
$$ ##$ShimPowMaxUC= (0..63)
$$ 130000 130000 130000 130000 130000 130000 130000 130000 130000 130000 130000
$$ 130000 130000 130000 130000 130000 130000 130000 130000 130000 130000 130000
$$ 130000 130000 130000 130000 130000 130000 130000 130000 130000 130000 130000
$$ 130000 130000 130000 130000 130000 130000 130000 0 0 0 0 0 0 0 0 0 0 0
$$ 0 0 0 0 0 0 0 0 0 0 0 0 0
$$ ##$ShimPowMaxUG= (0..63)
$$ 524287 524287 524287 524287 524287 524287 524287 524287 524287 524287 524287
$$ 524287 524287 524287 524287 524287 524287 524287 524287 524287 524287 524287
$$ 524287 524287 524287 524287 524287 524287 524287 524287 524287 524287 524287
$$ 524287 524287 524287 524287 524287 524287 0 0 0 0 0 0 0 0 0 0 0 0 0 0 0
$$ 0 0 0 0 0 0 0 0 0 0
$$ ##$ShimPowNum= 0
$$ ##$ShimPowRcbType= 3
$$ ##$ShimPowRes= (0..63)
$$ 1e-020 1e-020 1e-020 1e-020 1e-020 1e-020 1e-020 1e-020 1e-020 1e-020 1e-020
$$ 1e-020 1e-020 1e-020 1e-020 1e-020 1e-020 1e-020 1e-020 1e-020 1e-020 1e-020
$$ 1e-020 1e-020 1e-020 1e-020 1e-020 1e-020 1e-020 1e-020 1e-020 1e-020 1e-020
$$ 1e-020 1e-020 1e-020 1e-020 1e-020 1e-020 1e-020 0 0 0 0 0 0 0 0 0 0 0
$$ 0 0 0 0 0 0 0 0 0 0 0 0 0
$$ ##$ShimPowRng0= (0..63)
$$ 1 1 1 1 1 1 1 1 1 1 1 1 1 1 1 1 1 1 1 1 1 1 1 1 1 1 1 1 1 1 1 1 1 1 1 1
$$ 1 1 1 1 0 0 0 0 0 0 0 0 0 0 0 0 0 0 0 0 0 0 0 0 0 0 0 0
$$ ##$ShimPowRng1= (0..63)
$$ 1 1 1 1 1 1 1 1 1 1 1 1 1 1 1 1 1 1 1 1 1 1 1 1 1 1 1 1 1 1 1 1 1 1 1 1
$$ 1 1 1 1 0 0 0 0 0 0 0 0 0 0 0 0 0 0 0 0 0 0 0 0 0 0 0 0
$$ ##$ShimPowRng2= (0..63)
$$ 1 1 1 1 1 1 1 1 1 1 1 1 1 1 1 1 1 1 1 1 1 1 1 1 1 1 1 1 1 1 1 1 1 1 1 1
$$ 1 1 1 1 0 0 0 0 0 0 0 0 0 0 0 0 0 0 0 0 0 0 0 0 0 0 0 0
$$ ##$ShimPowRng3= (0..63)
$$ 1 1 1 1 1 1 1 1 1 1 1 1 1 1 1 1 1 1 1 1 1 1 1 1 1 1 1 1 1 1 1 1 1 1 1 1
$$ 1 1 1 1 0 0 0 0 0 0 0 0 0 0 0 0 0 0 0 0 0 0 0 0 0 0 0 0
$$ ##$ShimPowType1= 0
$$ ##$ShimPowType2= 0
$$ ##$ShimPowType3= 0
$$ ##$ShimPowType4= 0
$$ ##$ShimSysAngle= <>
$$ ##$ShimSysFunc= (0..63)
$$ 1 2 3 4 5 6 7 8 9 10 0 37 38 35 16 15 14 13 12 11 28 27 26 25 24 23 36
$$ 22 30 29 20 21 34 33 32 31 17 18 19 0 0 0 0 0 0 0 0 0 0 0 0 0 0 0 0 0 0
$$ 0 0 0 0 0 0 0
$$ ##$ShimSysMatId= <no>
$$ ##$ShimSysMatrix= 1
$$ ##$ShimSysOffset= <>
$$ ##$ShimSysType= 4
$$ ##$ShimUnit= 0
$$ ##$TFXNUM= 0
$$ ##$TOSITY= <no>
$$ ##$TRIPLO2= 0
$$ ##$VTU= 2
$$ ##$VTUETH= <149.236.99.20>
$$ ##$VTUTY= <no>
$$ ##$WBREFAM= (0..15)
$$ 100.3 100 100 100 100 100 100 100 100 100 100 100 100 100 100 100
$$ ##$WBREFLM= (0..15)
$$ 1 0 0 0 0 0 0 0 0 0 0 0 0 0 0 0
$$ ##$WBREFPH= (0..15)
$$ 0.11 0 0 0 0 0 0 0 0 0 0 0 0 0 0 0
$$ ##$WBSGU= (0..15)
$$ 0 0 0 0 0 0 0 0 0 0 0 0 0 0 0 0
$$ ##$XFAC= 2
$$ ##END=
##$RELAX= 
##$BRUKER FILE PROC=integrals.txt
$$    Current data set:
$$    NAME =	Cyclopropylmethylalkohol	EXPNO =	170	PROCNO = 1
$$    DU   =	G:/data/Datenbank/Erstellte Datenbank
$$ 
$$    Number   Integrated Region     Integral
$$      1      3.496      3.400         2.00782
$$      2      1.673      1.610         1.10654
$$      3      1.178      1.031         1.01078
$$      4      0.585      0.475         1.99939
$$      5      0.264      0.158         2.00000
##$RELAX= 
##$BRUKER FILE PROC=intrng
$$ A 1.0 #regions in PPM
$$ # low field   high field  bias        slope
$$   3.496187059478252  3.399600127582359  -0.0  -0.0  # for region 1
$$   1.67294629797259  1.610413839261964  -0.0  -0.0  # for region 2
$$   1.1783713972612757  1.0305674039452508  -0.0  -0.0  # for region 3
$$   0.5849356570645912  0.47506260796732336  -0.0  -0.0  # for region 4
$$   0.26401149926969386  0.1580907181255652  -0.0  -0.0  # for region 5
##$RELAX= 
##$BRUKER FILE PROC=parm.txt
$$ 
$$ Current Data Parameters
$$ NAME     20241028-AVIII600              
$$ EXPNO               170              
$$ PROCNO                1              
$$ 
$$ F2 - Acquisition Parameters
$$ Date_          20241028              
$$ Time              12.49 h            
$$ INSTRUM           spect              
$$ PROBHD   Z114607_0100 (              
$$ PULPROG            zg30              
$$ TD                65536              
$$ SOLVENT           CDCl3              
$$ NS                   16              
$$ DS                    2              
$$ SWH           12019.230 Hz           
$$ FIDRES         0.366798 Hz           
$$ AQ            2.7262976 sec          
$$ RG                   64              
$$ DW               41.600 usec         
$$ DE                12.05 usec         
$$ TE                298.0 K            
$$ D1           1.00000000 sec          
$$ TD0                   1              
$$ SFO1        600.1337058 MHz          
$$ NUC1                 1H              
$$ P0                 3.46 usec         
$$ P1                10.37 usec         
$$ PLW1        29.99200058 W            
$$ 
$$ F2 - Processing parameters
$$ SI                65536              
$$ SF          600.1301293 MHz          
$$ WDW                  EM              
$$ SSB                   0              
$$ LB                 0.30 Hz           
$$ GB                    0              
$$ PC                 1.00              
##$RELAX= 
##$BRUKER FILE PROC=peaklist.xml
$$ <?xml version="1.0" encoding="UTF-8"?>
$$ <PeakList modified="2024-11-26T15:04:41">
$$   <PeakList1D>
$$     <PeakList1DHeader creator="hackl" date="2024-11-26T15:04:40" expNo="170" name="Cyclopropylmethylalkohol" owner="" procNo="1" source="G:\data\Datenbank\Erstellte Datenbank">
$$       <PeakPickDetails>F1=3.814101ppm, F2=3.121967ppm, MI=12.98cm, MAXI=16.95cm, PC=1.000
$$       </PeakPickDetails>
$$     </PeakList1DHeader>
$$     <Peak1D F1="3.45011" intensity="14.88665" type="0"/>
$$     <Peak1D F1="3.438379" intensity="15.0" type="0"/>
$$   </PeakList1D>
$$   <PeakList1D>
$$     <PeakList1DHeader creator="hackl" date="2024-11-26T15:04:40" expNo="170" name="Cyclopropylmethylalkohol" owner="" procNo="1" source="G:\data\Datenbank\Erstellte Datenbank">
$$       <PeakPickDetails>F1=2.046950ppm, F2=-0.397609ppm, MI=0.93cm, MAXI=9.82cm, PC=1.000
$$       </PeakPickDetails>
$$     </PeakList1DHeader>
$$     <Peak1D F1="1.634786" intensity="3.4141" type="0"/>
$$     <Peak1D F1="1.116813" intensity="1.313983" type="0"/>
$$     <Peak1D F1="1.115467" intensity="1.491364" type="0"/>
$$     <Peak1D F1="1.111701" intensity="1.31673" type="0"/>
$$     <Peak1D F1="1.108973" intensity="0.9768533" type="0"/>
$$     <Peak1D F1="1.107401" intensity="0.9452974" type="0"/>
$$     <Peak1D F1="1.103645" intensity="2.460541" type="0"/>
$$     <Peak1D F1="1.10003" intensity="0.9387336" type="0"/>
$$     <Peak1D F1="1.098402" intensity="1.0052" type="0"/>
$$     <Peak1D F1="1.095575" intensity="1.38551" type="0"/>
$$     <Peak1D F1="1.091782" intensity="1.43558" type="0"/>
$$     <Peak1D F1="1.09043" intensity="1.565473" type="0"/>
$$     <Peak1D F1="0.547292" intensity="1.923703" type="0"/>
$$     <Peak1D F1="0.539698" intensity="5.896625" type="0"/>
$$     <Peak1D F1="0.537712" intensity="6.158036" type="0"/>
$$     <Peak1D F1="0.534381" intensity="2.659392" type="0"/>
$$     <Peak1D F1="0.530115" intensity="2.548257" type="0"/>
$$     <Peak1D F1="0.526387" intensity="5.973219" type="0"/>
$$     <Peak1D F1="0.524356" intensity="5.813749" type="0"/>
$$     <Peak1D F1="0.516859" intensity="2.099018" type="0"/>
$$     <Peak1D F1="0.225353" intensity="2.078012" type="0"/>
$$     <Peak1D F1="0.21775" intensity="7.145763" type="0"/>
$$     <Peak1D F1="0.2163" intensity="6.86255" type="0"/>
$$     <Peak1D F1="0.207996" intensity="7.354709" type="0"/>
$$     <Peak1D F1="0.200225" intensity="1.746476" type="0"/>
$$     <Peak1D F1="-1.45E-4" intensity="4.143159" type="0"/>
$$   </PeakList1D>
$$ </PeakList>
##$RELAX= 
##$BRUKER FILE PROC=peakrng
$$ P    #regions in PPM
$$ # 2024-11-26 15:04:45 +0100  hackl@NMR18
$$ # low field   high field   mi   maxi
$$   3.814100996749936  3.1219668390385578  12.979  16.946  # for region 1
$$   2.0469499557847146  -0.39760898421717483  0.927  9.819  # for region 2
##$RELAX= 
$$ Bruker specific parameters
$$ --------------------------
##$DATPATH= <Z:/data/Datenbank/Erstellte Datenbank>
##$EXPNO= 170
##$NAME= <Cyclopropylmethylalkohol>
##$PROCNO= 1
##$ACQT0= -1.76893276833414
##$AMP= (0..31)
100 100 100 100 100 100 100 100 100 100 100 100 100 100 100 100 100 100
100 100 100 100 100 100 100 100 100 100 100 100 100 100
##$AMPCOIL= (0..32)
-1 0 0 0 0 0 0 0 0 0 0 0 0 0 0 0 0 0 0 0 0 0 0 0 0 0 0 0 0 0 0 0 0
##$AQSEQ= 0
##$AQ_mod= 3
##$AUNM= <au_zg>
##$AUTOPOS= <1 >
##$BF1= 600.13
##$BF2= 600.13
##$BF3= 600.13
##$BF4= 600.13
##$BF5= 600.13
##$BF6= 600.13
##$BF7= 600.13
##$BF8= 600.13
##$BWFAC= (0..63)
0 0 0 0 0 0 0 0 0 0 0 0 0 0 0 0 0 0 0 0 0 0 0 0 0 0 0 0 0 0 0 0 0 0 0 0
0 0 0 0 0 0 0 0 0 0 0 0 0 0 0 0 0 0 0 0 0 0 0 0 0 0 0 0
##$BYTORDA= 0
##$CHANFCU= (0..24)
0 0 0 0 0 0 0 0 0 0 0 0 0 0 0 0 0 0 0 0 0 0 0 0 0
##$CHANREC= (0..24)
0 0 0 0 0 0 0 0 0 0 0 0 0 0 0 0 0 0 0 0 0 0 0 0 0
##$CHEMSTR= <none>
##$CNST= (0..63)
1 1 1 1 1 1 1 1 1 1 1 1 1 1 1 1 1 1 1 1 1 1 1 1 1 1 1 1 1 1 1 1 1 1 1 1
1 1 1 1 1 1 1 1 1 1 1 1 1 1 1 1 1 1 1 1 1 1 1 1 1 1 1 1
##$CPDPRG= (0..8)
<> <> <> <> <> <> <> <> <>
##$D= (0..63)
0 1 0 0 0 0 0 0 0 0 0 0 0 0 0 0 0.0002 0 0 0 0 0 0 0 0 0 0 0 0 0 0 0 0
0 0 0 0 0 0 0 0 0 0 0 0 0 0 0 0 0 0 0 0 0 0 0 0 0 0 0 0 0 0 0
##$DATE= 1730116144
##$DATE_START= 1730116073
##$DE= 12.04607
##$DECBNUC= <off>
##$DECIM= 1664
##$DECNUC= <off>
##$DECSTAT= 4
##$DIGMOD= 3
##$DIGTYP= 12
##$DR= 22
##$DS= 2
##$DSPFIRM= 0
##$DSPFVS= 21
##$DTYPA= 0
##$EXP= <PROTON.AUT>
##$ExpStatus= 0
##$FCUCHAN= (0..9)
0 2 0 0 0 0 0 0 0 0
##$FILCOR= 0
##$FL1= 0
##$FL2= 0
##$FL3= 0
##$FL4= 0
##$FN_INDIRECT= (0..7)
0 0 0 0 0 0 0 0
##$FOV= 0
##$FQ1LIST= <>
##$FQ2LIST= <>
##$FQ3LIST= <>
##$FQ4LIST= <>
##$FQ5LIST= <>
##$FQ6LIST= <>
##$FQ7LIST= <>
##$FQ8LIST= <>
##$FS= (0..7)
83 83 83 83 83 83 83 83
##$FTLPGN= 0
##$FW= 4032000
##$FnILOOP= 0
##$FnMODE= 0
##$FnTYPE= 0
##$GPNAM= (0..31)
<> <> <> <> <> <> <> <> <> <> <> <> <> <> <> <> <> <> <> <> <> <> <> <>
<> <> <> <> <> <> <> <>
##$GPX= (0..31)
0 0 0 0 0 0 0 0 0 0 0 0 0 0 0 0 0 0 0 0 0 0 0 0 0 0 0 0 0 0 0 0
##$GPY= (0..31)
0 0 0 0 0 0 0 0 0 0 0 0 0 0 0 0 0 0 0 0 0 0 0 0 0 0 0 0 0 0 0 0
##$GPZ= (0..31)
0 0 0 0 0 0 0 0 0 0 0 0 0 0 0 0 0 0 0 0 0 0 0 0 0 0 0 0 0 0 0 0
##$GRPDLY= 76
##$GrpdlyHandling= 0
##$HDDUTY= 20
##$HDRATE= 1
##$HGAIN= (0..3)
0 0 0 0
##$HOLDER= 1
##$HPMOD= (0..32)
0 0 0 0 0 0 0 0 0 0 0 0 0 0 0 0 0 0 0 0 0 0 0 0 0 0 0 0 0 0 0 0 0
##$IN= (0..63)
0 0 0 0 0 0 0 0 0 0 0 0 0 0 0 0 0 0 0 0 0 0 0 0 0 0 0 0 0 0 0 0 0 0 0 0
0 0 0 0 0 0 0 0 0 0 0 0 0 0 0 0 0 0 0 0 0 0 0 0 0 0 0 0
##$INF= (0..7)
0 0 0 0 0 0 0 0
##$INP= (0..63)
0 0 0 0 0 0 0 0 0 0 0 0 0 0 0 0 0 0 0 0 0 0 0 0 0 0 0 0 0 0 0 0 0 0 0 0
0 0 0 0 0 0 0 0 0 0 0 0 0 0 0 0 0 0 0 0 0 0 0 0 0 0 0 0
##$INSTRUM= <spect>
##$INTEGFAC= (0..63)
0 0 0 0 0 0 0 0 0 0 0 0 0 0 0 0 0 0 0 0 0 0 0 0 0 0 0 0 0 0 0 0 0 0 0 0
0 0 0 0 0 0 0 0 0 0 0 0 0 0 0 0 0 0 0 0 0 0 0 0 0 0 0 0
##$L= (0..31)
1 1 1 1 1 1 1 1 1 1 1 1 1 1 1 1 1 1 1 1 1 1 1 1 1 1 1 1 1 1 1 1
##$LFILTER= 100
##$LGAIN= -12
##$LINPSTP= 0
##$LOCKED= yes
##$LOCKFLD= 3397
##$LOCKGN= 122.067138671875
##$LOCKPOW= -30
##$LOCKPPM= 7.23999977111816
##$LOCNUC= <2H>
##$LOCPHAS= 141.3187
##$LOCSHFT= yes
##$LOCSW= 0
##$LTIME= 0.400000005960464
##$MASR= 4200
##$MULEXPNO= (0..15)
0 0 0 0 0 0 0 0 0 0 0 0 0 0 0 0
##$NBL= 1
##$NC= -6
##$NLOGCH= 2
##$NOVFLW= 0
##$NS= 16
##$NUC1= <1H>
##$NUC2= <off>
##$NUC3= <off>
##$NUC4= <off>
##$NUC5= <off>
##$NUC6= <off>
##$NUC7= <off>
##$NUC8= <off>
##$NUCLEUS= <off>
##$NUSLIST= <automatic>
##$NusAMOUNT= 25
##$NusFPNZ= no
##$NusJSP= 0
##$NusSEED= 54321
##$NusSPTYPE= 0
##$NusT2= 1
##$NusTD= 0
##$O1= 3705.8
##$O2= 3705.8
##$O3= 3705.8
##$O4= 3705.8
##$O5= 3705.8
##$O6= 3705.8
##$O7= 3705.8
##$O8= 3705.8
##$OVERFLW= 0
##$P= (0..63)
3.456667 10.37 20.74 0 0 16.5 25 50 20000 0 0 80000 80000 1000 0 0 1000
0 100000 600 0 0 0 0 0 180 100000 10.37 1000 1000 0 0 20000 0 0 0 0 0 0
0 2000 0 0 0 200 0 80000 46600 10000 0 80000 0 0 0 0 0 0 0 0 0 0 0 0 0
##$PACOIL= (0..32)
2 3 1 0 0 0 0 0 0 0 0 0 0 0 0 0 0 0 0 0 0 0 0 0 0 0 0 0 0 0 0 0 0
##$PAPS= 0
##$PARMODE= 0
##$PCPD= (0..9)
0 70 0 0 0 0 0 0 0 0
##$PEXSEL= (0..9)
1 1 1 1 1 1 1 1 1 1
##$PHCOR= (0..31)
0 0 0 0 0 0 0 0 0 0 0 0 0 0 0 0 0 0 0 0 0 0 0 0 0 0 0 0 0 0 0 0
##$PHLIST= <>
##$PH_ref= 0
##$PL= (0..63)
120 120 120 120 120 120 120 120 120 120 120 120 120 120 120 120 120 120
120 120 120 120 120 120 120 120 120 120 120 120 120 120 120 120 120 120
120 120 120 120 120 120 120 120 120 120 120 120 120 120 120 120 120 120
120 120 120 120 120 120 120 120 120 120
##$PLSTEP= 0.1
##$PLSTRT= -6
##$PLW= (0..63)
0 29.992 0 0 0 0 0 0 0 0.00012906 5.1623 0.39833 0 0 0 0 0 0 29.992 0.65846
0 0 0 0 0 0 0 0.39833 0 5.1623 0 0 5.1623e-06 0 0 0 0 0 0 0 0 0 0 0 0 0
0 0 0 0 0 0 0 0 0 0 0 0 0 0 0 0 0 0
##$PLWMAX= (0..7)
89.67 0 0 0 0 0 0 0
##$PQPHASE= 0
##$PQSCALE= 1
##$PR= 1
##$PRECHAN= (0..32)
-1 2 -1 0 -1 1 -1 -1 -1 -1 -1 -1 -1 -1 -1 -1 -1 -1 -1 -1 -1 -1 -1 -1 -1
-1 -1 -1 -1 -1 -1 -1 -1
##$PROBHD= <Z114607_0100 (PA BBO 600S3 BBF-H-D-05 Z SP)>
##$PROBINPUTS= (0..15)
<19F-109Ag> <1H> <2H> <> <> <> <> <> <> <> <> <> <> <> <> <>
##$PULPROG= <zg30>
##$PW= 0
##$PYNM= <>
##$ProjAngle= 0
##$QNP= 0
##$RECCHAN= (0..9)
0 2 0 0 0 0 0 0 0 0
##$RECPH= 0
##$RECPRE= (0..24)
-1 0 -1 -1 -1 -1 -1 -1 -1 -1 -1 -1 -1 -1 -1 -1 -1 -1 -1 -1 -1 -1 -1 -1
-1
##$RECPRFX= (0..32)
1 0 0 0 0 0 0 0 0 0 0 0 0 0 0 0 -1 -1 -1 -1 -1 -1 -1 -1 -1 -1 -1 -1 -1
-1 -1 -1 -1
##$RG= 64
##$RO= 0
##$RSEL= (0..24)
0 0 2 0 0 0 0 0 0 0 0 0 0 0 0 0 0 0 0 0 0 0 0 0 0
##$SAMPLEID= <>
##$SFO1= 600.1337058
##$SFO2= 600.1337058
##$SFO3= 600.1337058
##$SFO4= 600.1337058
##$SFO5= 600.1337058
##$SFO6= 600.1337058
##$SFO7= 600.1337058
##$SFO8= 600.1337058
##$SOLVENT= <CDCl3>
##$SOLVOLD= <off>
##$SP= (0..63)
120 120 120 120 120 120 120 120 120 120 120 120 120 120 120 120 120 120
120 120 120 120 120 120 120 120 120 120 120 120 120 120 120 120 120 120
120 120 120 120 120 120 120 120 120 120 120 120 120 120 120 120 120 120
120 120 120 120 120 120 120 120 120 120
##$SPECTR= 0
##$SPINCNT= 0
##$SPNAM= (0..63)
<> <Gaus1_270.1000> <Gaus1_180r.1000> <> <> <Squa100.1000> <Squa100.1000>
<> <Squa100.1000> <> <Squa100.1000> <Squa100.1000> <> <> <> <> <> <> <>
<Sinc1.1000> <Sinc1.1000> <Sinc1.1000> <Sinc1.1000> <> <> <> <> <> <> <Crp60,20,20.10>
<Bip720,50,20.1> <> <> <> <Rsnob.1000> <Gaus1_180r.1000> <Gaus1_180r.1000>
<> <> <> <Gaus1_180r.1000> <Squa100.1000> <> <> <> <> <> <> <> <> <> <>
<> <> <> <> <> <> <> <> <> <> <> <>
##$SPOAL= (0..63)
0.5 1 0.5 0.5 0.5 0.5 0.5 0.5 0.5 0.5 0.5 0.5 0.5 0.5 0.5 0.5 0.5 0.5 0.5
1 1 1 1 0.5 0.5 0.5 0.5 0.5 0.5 0.5 0.5 0.5 0.5 0.5 0.5 0.5 0.5 0.5 0.5
0.5 0.5 0.5 0.5 0.5 0.5 0.5 0.5 0.5 0.5 0.5 0.5 0.5 0.5 0.5 0.5 0.5 0.5
0.5 0.5 0.5 0.5 0.5 0.5 0.5
##$SPOFFS= (0..63)
0 0 0 0 0 0 0 0 0 0 0 0 0 0 0 0 0 0 0 0 0 0 0 0 0 0 0 0 0 0 0 0 0 0 0 0
0 0 0 0 0 0 0 0 0 0 0 0 0 0 0 0 0 0 0 0 0 0 0 0 0 0 0 0
##$SPPEX= (0..63)
0 0 0 0 0 0 0 0 0 0 0 0 0 0 0 0 0 0 0 0 0 0 0 0 0 0 0 0 0 0 0 0 0 0 0 0
0 0 0 0 0 0 0 0 0 0 0 0 0 0 0 0 0 0 0 0 0 0 0 0 0 0 0 0
##$SPW= (0..63)
0 2.6785e-05 1.1904e-05 0 0 0.0032265 0.00012906 0 3.2265e-07 0 0.0032265
0.0032265 0 0 0 0 0 0 0 1.90026e-05 2.953893e-05 1.379259e-05 7.438228e-05
0 0 0 0 0 0 0.12324 5.1623 0 0 0 0.00013014 1.1904e-05 0.00076187 0 0 0
1.1904e-05 3.2265e-07 0 0 0 0 0 0 0 0 0 0 0 0 0 0 0 0 0 0 0 0 0 0
##$SUBNAM= (0..9)
<> <> <> <> <> <> <> <> <> <>
##$SW= 20.0275882741975
##$SWIBOX= (0..32)
0 0 3 0 0 0 0 0 0 0 0 0 0 0 0 0 0 0 0 0 0 0 0 0 0 0 0 0 0 0 0 0 0
##$SW_h= 12019.2307692308
##$SWfinal= 0
##$SigLockShift= 0
##$TD= 65536
##$TD0= 1
##$TD_INDIRECT= (0..7)
0 0 0 0 0 0 0 0
##$TDav= 1
##$TE= 298.0019
##$TE1= 298.0019
##$TE2= 0
##$TE3= 0
##$TE4= 0
##$TEG= 300
##$TE_MAGNET= 0
##$TE_PIDX= 1
##$TE_RAW= 298.0019
##$TE_STAB= (0..9)
1 1 0 0 0 0 0 0 0 0
##$TOTROT= (0..63)
0 0 0 0 0 0 0 0 0 0 0 0 0 0 0 0 0 0 0 0 0 0 0 0 0 0 0 0 0 0 0 0 0 0 0 0
0 0 0 0 0 0 0 0 0 0 0 0 0 0 0 0 0 0 0 0 0 0 0 0 0 0 0 0
##$TUBE_TYPE= <>
##$USERA1= <>
##$USERA10= <>
##$USERA2= <>
##$USERA3= <>
##$USERA4= <>
##$USERA5= <>
##$USERA6= <>
##$USERA7= <>
##$USERA8= <>
##$USERA9= <>
##$UUID= <776abec0-9522-11ef-b82e-3417eba89713>
##$VALIDCODE= -1
##$VALIST= <>
##$VCLIST= <>
##$VDLIST= <>
##$VPLIST= <>
##$VTLIST= <>
##$WAVEMAKER= (0..7)
<> <> <> <> <> <> <> <>
##$WBST= 1024
##$WBSW= (0..7)
4 10 10 10 10 10 10 10
##$XL= 0
##$YL= 0
##$YMAX_a= 4525879
##$YMIN_a= -4005823
##$ZGOPTNS= <>
##$scaledByNS= no
##$scaledByRG= no
##$shimCoilTempK= 300
##$ABSF1= 16.18152
##$ABSF2= -3.846193
##$ABSG= 5
##$ABSL= 50
##$ALPHA= 0
##$AQORDER= 0
##$ASSFAC= 0
##$ASSFACI= 0
##$ASSFACX= 0
##$ASSWID= 0
##$AUNMP= <proc_1d>
##$AXLEFT= 0
##$AXNAME= <>
##$AXNUC= <1H>
##$AXRIGHT= 0
##$AXTYPE= 0
##$AXUNIT= <>
##$AZFE= 0.1
##$AZFW= 0.1
##$BCFW= 0
##$BC_mod= 0
##$BYTORDP= 0
##$COROFFS= 0
##$CY= 15
##$DATMOD= 1
##$DC= 0
##$DFILT= <>
##$DTYPP= 0
##$ERETIC= no
##$F1P= 4.09389989217098
##$F2P= -0.427061499543016
##$FCOR= 1
##$FTSIZE= 65536
##$FT_mod= 6
##$GAMMA= 0
##$GB= 0
##$INTBC= 1
##$INTSCL= 2.15180649268829e-10
##$ISEN= 128
##$LB= 0.3
##$LEV0= 0
##$LPBIN= 0
##$MAXI= 10000
##$MC2= 0
##$MEAN= 0
##$ME_mod= 0
##$MI= 0.1
##$MddCEXP= no
##$MddCT_SP= no
##$MddF180= no
##$MddLAMBDA= 0
##$MddMEMORY= 0
##$MddMERGE= 0
##$MddNCOMP= 0
##$MddNITER= 0
##$MddNOISE= 0
##$MddPHASE= 0
##$MddSEED= 0
##$MddSRSIZE= 0
##$Mdd_CsALG= 0
##$Mdd_CsLAMBDA= 0
##$Mdd_CsNITER= 0
##$Mdd_CsNORM= 0
##$Mdd_CsVE= no
##$Mdd_CsZF= 0
##$Mdd_LrLAMBDA= 0
##$Mdd_LrNITER= 0
##$Mdd_LrRANK= 0
##$Mdd_LrZF= 0
##$Mdd_mod= 0
##$NCOEF= 0
##$NC_proc= -4
##$NLEV= 6
##$NOISF1= 0
##$NOISF2= 0
##$NSP= 0
##$NTH_PI= 0
##$NZP= 0
##$OFFSET= 15.97338
##$PC= 1
##$PHC0= 79.9077
##$PHC1= -1.157383
##$PH_mod= 1
##$PKNL= yes
##$PPARMOD= 0
##$PPDIAG= 0
##$PPIPTYP= 0
##$PPMPNUM= 2147483647
##$PPRESOL= 1
##$PSCAL= 0
##$PSIGN= 0
##$PYNMP= <>
##$RDF1= 0
##$RDF2= 0
##$RDFWHM= 0
##$RDINT= 0
##$RDPOS= 0
##$REVERSE= no
##$SF= 600.130129307826
##$SI= 65536
##$SIGF1= 0
##$SIGF2= 0
##$SINO= 0
##$SIOLD= 65536
##$SPECTYP= <PROTON>
##$SREF_mod= 1
##$SREGLST= <1H.CDCl3>
##$SSB= 0
##$STSI= 65536
##$STSR= 0
##$SW_p= 12019.2307692308
##$SYMM= 0
##$S_DEV= 0
##$TDeff= 65536
##$TDoff= 0
##$TI= <>
##$TILT= no
##$TM1= 0
##$TM2= 0
##$TOPLEV= 0
##$USERP1= <>
##$USERP10= <>
##$USERP2= <>
##$USERP3= <>
##$USERP4= <>
##$USERP5= <>
##$USERP6= <>
##$USERP7= <>
##$USERP8= <>
##$USERP9= <>
##$WDW= 1
##$XDIM= 65536
##$YMAX_p= 447760245
##$YMIN_p= -138533
##$CURPLOT= <>
##$CURPRIN= <$>
##$DFORMAT= <normdp>
##$LAYOUT= <+/1D_H.xwp>
##$LFORMAT= <normlp>
##$PFORMAT= <normpl>
$$ End of Bruker specific parameters
$$ ---------------------------------
##XUNITS= HZ
##YUNITS= ARBITRARY UNITS
##XFACTOR= 0.183398907001202
##YFACTOR= 1
##DELTAX= -0.183398907001202
##NPOINTS= 65536
##FIRSTX= 12019.0473703238
##FIRSTY= 13977
##LASTX= 0
##MAXY= 447760245
##MINY= -138533
##XYDATA= (X++(Y..Y))
65535 13977
65534 15259
65533 16270
65532 12439
65531 12089
65530 13728
65529 14819
65528 16762
65527 19454
65526 22219
65525 26395
65524 25841
65523 22889
65522 23476
65521 23300
65520 21821
65519 22673
65518 25823
65517 22470
65516 17032
65515 13699
65514 10103
65513 14552
65512 21452
65511 18603
65510 15764
65509 14720
65508 18233
65507 21994
65506 17592
65505 14804
65504 19182
65503 17629
65502 18251
65501 21117
65500 17392
65499 15653
65498 16590
65497 14747
65496 13718
65495 13664
65494 15586
65493 15470
65492 13861
65491 12963
65490 14447
65489 14392
65488 17022
65487 18088
65486 12892
65485 11569
65484 17249
65483 15973
65482 17024
65481 14514
65480 16034
65479 20009
65478 18906
65477 16911
65476 16619
65475 20091
65474 19667
65473 22315
65472 19252
65471 19460
65470 20333
65469 18778
65468 19212
65467 15351
65466 13703
65465 14881
65464 13442
65463 14368
65462 14712
65461 14634
65460 16947
65459 19788
65458 16770
65457 14326
65456 17138
65455 15592
65454 14097
65453 12874
65452 8401
65451 9817
65450 15938
65449 15862
65448 11247
65447 14507
65446 14594
65445 16363
65444 17407
65443 18876
65442 21090
65441 16159
65440 10182
65439 16794
65438 19381
65437 18473
65436 14355
65435 15019
65434 16558
65433 19017
65432 19725
65431 20056
65430 19351
65429 11607
65428 12309
65427 9544
65426 11282
65425 17600
65424 13375
65423 13397
65422 13113
65421 12519
65420 14840
65419 14412
65418 11110
65417 7749
65416 7069
65415 9673
65414 9300
65413 10525
65412 14839
65411 20301
65410 20634
65409 15494
65408 14190
65407 13856
65406 14685
65405 14102
65404 17708
65403 20203
65402 17831
65401 15761
65400 11594
65399 12783
65398 17260
65397 23338
65396 23730
65395 16670
65394 8667
65393 7746
65392 7732
65391 13011
65390 15027
65389 13803
65388 9829
65387 7893
65386 8543
65385 12032
65384 15373
65383 17786
65382 18075
65381 16970
65380 12273
65379 12608
65378 12597
65377 11296
65376 11282
65375 10316
65374 9678
65373 9548
65372 11286
65371 11037
65370 10562
65369 7847
65368 9302
65367 15268
65366 13158
65365 12837
65364 12460
65363 11917
65362 12511
65361 14966
65360 16335
65359 11456
65358 8679
65357 12095
65356 11697
65355 12399
65354 14931
65353 13476
65352 8130
65351 9124
65350 14172
65349 10554
65348 9430
65347 10928
65346 12219
65345 12797
65344 9197
65343 11868
65342 14212
65341 10298
65340 9279
65339 14169
65338 11205
65337 10526
65336 8427
65335 7843
65334 10156
65333 10212
65332 12062
65331 10553
65330 11494
65329 7696
65328 7861
65327 13649
65326 8504
65325 3611
65324 9320
65323 7824
65322 7245
65321 9313
65320 8366
65319 4530
65318 3536
65317 10023
65316 14234
65315 14338
65314 12578
65313 9732
65312 7860
65311 6645
65310 11931
65309 9360
65308 9991
65307 13025
65306 14733
65305 11078
65304 5545
65303 2174
65302 7103
65301 7618
65300 8531
65299 12114
65298 12972
65297 13803
65296 15383
65295 21569
65294 17929
65293 18475
65292 17138
65291 16767
65290 17778
65289 11804
65288 12070
65287 11294
65286 11529
65285 14058
65284 16725
65283 17751
65282 11596
65281 10992
65280 13060
65279 7317
65278 5736
65277 7868
65276 15275
65275 16426
65274 12977
65273 12851
65272 19073
65271 13309
65270 9180
65269 4254
65268 5007
65267 4856
65266 5628
65265 7834
65264 9244
65263 6565
65262 2962
65261 181
65260 -940
65259 1812
65258 3992
65257 5126
65256 8571
65255 8620
65254 12081
65253 10925
65252 12559
65251 10797
65250 3665
65249 5818
65248 11591
65247 8950
65246 4674
65245 5420
65244 8061
65243 8951
65242 7677
65241 -65
65240 -1893
65239 695
65238 406
65237 2745
65236 6326
65235 7287
65234 6111
65233 -390
65232 304
65231 5513
65230 7083
65229 1374
65228 -1416
65227 6553
65226 11571
65225 15966
65224 11615
65223 6156
65222 8642
65221 15315
65220 12816
65219 9642
65218 8788
65217 8637
65216 7356
65215 6819
65214 4842
65213 1043
65212 2797
65211 3113
65210 1106
65209 3462
65208 4873
65207 6648
65206 3988
65205 5730
65204 4897
65203 9103
65202 10947
65201 10000
65200 7503
65199 7865
65198 5476
65197 5060
65196 1052
65195 -1027
65194 5704
65193 7530
65192 7503
65191 6920
65190 3432
65189 7767
65188 16554
65187 15464
65186 10920
65185 8927
65184 5369
65183 3322
65182 12551
65181 11907
65180 7083
65179 7932
65178 4487
65177 5415
65176 7223
65175 8556
65174 4723
65173 549
65172 2521
65171 6792
65170 5790
65169 4406
65168 2495
65167 7059
65166 12034
65165 10256
65164 15880
65163 19849
65162 15941
65161 6395
65160 5325
65159 13324
65158 10852
65157 10380
65156 10807
65155 14438
65154 21662
65153 20872
65152 18052
65151 10431
65150 8155
65149 8324
65148 6255
65147 7945
65146 8742
65145 7052
65144 2820
65143 4878
65142 13055
65141 11861
65140 14122
65139 10425
65138 2329
65137 6311
65136 5365
65135 -671
65134 -872
65133 3387
65132 5015
65131 1555
65130 2846
65129 2247
65128 -119
65127 1285
65126 4835
65125 -520
65124 -1205
65123 1441
65122 1596
65121 -4361
65120 93
65119 306
65118 -39
65117 -630
65116 -3496
65115 -793
65114 9582
65113 4420
65112 -1284
65111 3482
65110 7798
65109 2728
65108 -2518
65107 -3046
65106 -1197
65105 1682
65104 2181
65103 -360
65102 -844
65101 -2705
65100 3737
65099 8408
65098 7730
65097 3922
65096 -4487
65095 -6086
65094 861
65093 7991
65092 4480
65091 814
65090 5231
65089 9712
65088 10098
65087 3569
65086 6330
65085 2036
65084 -2650
65083 -5743
65082 -7742
65081 -3170
65080 -3542
65079 613
65078 1861
65077 5628
65076 8626
65075 8403
65074 3763
65073 5108
65072 3475
65071 1271
65070 -269
65069 720
65068 7187
65067 2847
65066 587
65065 859
65064 -1955
65063 1695
65062 7999
65061 3131
65060 394
65059 377
65058 1743
65057 1233
65056 3942
65055 7082
65054 9890
65053 8312
65052 3315
65051 8186
65050 6268
65049 -2504
65048 -3101
65047 -4212
65046 -3899
65045 -2337
65044 -2835
65043 -1813
65042 -2674
65041 1689
65040 4239
65039 2826
65038 125
65037 1955
65036 2308
65035 -642
65034 134
65033 2729
65032 -417
65031 -2871
65030 -347
65029 134
65028 -827
65027 543
65026 4198
65025 4353
65024 2499
65023 2029
65022 3232
65021 513
65020 -1735
65019 1330
65018 2910
65017 5074
65016 6229
65015 5171
65014 5694
65013 5947
65012 -4111
65011 -10448
65010 -9701
65009 -9581
65008 -1103
65007 3341
65006 4591
65005 4208
65004 2663
65003 -687
65002 -731
65001 -1215
65000 -2008
64999 -1250
64998 -384
64997 1739
64996 1537
64995 3362
64994 2341
64993 3096
64992 6581
64991 -4983
64990 -11765
[...]
2027 -420
2026 1566
2025 -4794
2024 -11372
2023 -17342
2022 -13052
2021 -9342
2020 -5233
2019 374
2018 4112
2017 4927
2016 6413
2015 4781
2014 6957
2013 3647
2012 -3103
2011 828
2010 -5548
2009 -6413
2008 -2519
2007 1418
2006 5625
2005 7271
2004 4468
2003 -357
2002 -7027
2001 -6226
2000 -1992
1999 828
1998 -1801
1997 -37
1996 3408
1995 -1702
1994 2093
1993 887
1992 -3025
1991 1947
1990 5231
1989 8790
1988 6943
1987 1611
1986 -99
1985 -1375
1984 -7245
1983 -4229
1982 -618
1981 1797
1980 -2457
1979 -7671
1978 -2506
1977 -4422
1976 -3002
1975 3524
1974 -3073
1973 -2176
1972 -1554
1971 3036
1970 6150
1969 6971
1968 2865
1967 -898
1966 652
1965 -1954
1964 -2459
1963 -389
1962 5752
1961 3141
1960 5201
1959 2263
1958 580
1957 4547
1956 5985
1955 5809
1954 -205
1953 -4039
1952 -238
1951 468
1950 2862
1949 1637
1948 2916
1947 -1002
1946 -5146
1945 -1558
1944 1487
1943 -4733
1942 -7385
1941 278
1940 1754
1939 7974
1938 8697
1937 9064
1936 6391
1935 3787
1934 -2998
1933 -3171
1932 -3814
1931 -1608
1930 1372
1929 679
1928 3558
1927 6526
1926 12335
1925 9019
1924 3409
1923 2431
1922 2911
1921 -2480
1920 -6174
1919 -2203
1918 -4279
1917 -4976
1916 -3005
1915 -2051
1914 -3151
1913 -5502
1912 -11259
1911 -7738
1910 -5302
1909 -664
1908 -636
1907 -6543
1906 -3416
1905 3820
1904 1910
1903 6059
1902 8166
1901 4530
1900 5253
1899 702
1898 -2354
1897 -2580
1896 -462
1895 -819
1894 -5431
1893 -1359
1892 2486
1891 6007
1890 153
1889 -10238
1888 -8909
1887 -1848
1886 -3509
1885 -347
1884 -5386
1883 -4678
1882 1144
1881 -2355
1880 -3293
1879 -1094
1878 1361
1877 2646
1876 2724
1875 -1383
1874 -4851
1873 -836
1872 -247
1871 4454
1870 2891
1869 -2811
1868 -3792
1867 -9400
1866 -3665
1865 10156
1864 9990
1863 1342
1862 -3225
1861 -1596
1860 7661
1859 11623
1858 6467
1857 -1113
1856 3444
1855 6862
1854 153
1853 1961
1852 221
1851 -2385
1850 3376
1849 6167
1848 1454
1847 -5266
1846 -2046
1845 1811
1844 254
1843 2778
1842 1076
1841 -1265
1840 -6547
1839 -9419
1838 -13173
1837 -9911
1836 -6389
1835 -9815
1834 -6637
1833 -5001
1832 -11049
1831 -11161
1830 -2497
1829 3558
1828 2765
1827 541
1826 -3999
1825 -1747
1824 951
1823 -4120
1822 -5162
1821 -2672
1820 2560
1819 -1529
1818 -8442
1817 -1110
1816 -4742
1815 -3629
1814 88
1813 1154
1812 7524
1811 8675
1810 2660
1809 1226
1808 5780
1807 14769
1806 14300
1805 10335
1804 6843
1803 2123
1802 -1633
1801 -4060
1800 -1941
1799 -184
1798 3467
1797 5576
1796 6110
1795 6833
1794 3535
1793 683
1792 -837
1791 -7391
1790 -12654
1789 -8303
1788 -3438
1787 -4268
1786 -4356
1785 -80
1784 -1738
1783 -792
1782 2362
1781 5067
1780 3871
1779 -1604
1778 -4021
1777 -538
1776 -957
1775 -5356
1774 -2598
1773 -1062
1772 -1970
1771 -6654
1770 -3564
1769 1143
1768 33
1767 142
1766 -2186
1765 -487
1764 -2114
1763 816
1762 1443
1761 518
1760 -1637
1759 -3085
1758 -2020
1757 -2022
1756 -3717
1755 -5932
1754 -2973
1753 -5350
1752 -7200
1751 -8032
1750 -8738
1749 -6514
1748 -4458
1747 -4255
1746 -3006
1745 -1656
1744 -681
1743 -6938
1742 3693
1741 4881
1740 9684
1739 8515
1738 3382
1737 2717
1736 6459
1735 1897
1734 -802
1733 -6091
1732 -4205
1731 1891
1730 3688
1729 3360
1728 10958
1727 13826
1726 6756
1725 9686
1724 11811
1723 11098
1722 11998
1721 10867
1720 6928
1719 5021
1718 6830
1717 2853
1716 7066
1715 7407
1714 1546
1713 1729
1712 1612
1711 4724
1710 2422
1709 7256
1708 8395
1707 10366
1706 7963
1705 7328
1704 7446
1703 4161
1702 2576
1701 -615
1700 -2164
1699 7015
1698 3761
1697 760
1696 -6324
1695 -12519
1694 -7426
1693 -372
1692 523
1691 -6081
1690 -2917
1689 -1621
1688 -2717
1687 -1729
1686 6415
1685 10583
1684 4281
1683 6449
1682 10819
1681 10198
1680 6120
1679 2720
1678 8229
1677 8309
1676 7144
1675 4583
1674 3347
1673 10174
1672 3054
1671 -2745
1670 -2212
1669 4702
1668 5335
1667 -757
1666 -3549
1665 -4049
1664 -2233
1663 -1320
1662 2894
1661 25
1660 -7529
1659 -4861
1658 -5085
1657 -3739
1656 5387
1655 7330
1654 3717
1653 4102
1652 9436
1651 7278
1650 3584
1649 4179
1648 5725
1647 4234
1646 2988
1645 7297
1644 7955
1643 5759
1642 1329
1641 194
1640 -513
1639 -5589
1638 -1446
1637 -560
1636 2388
1635 2347
1634 2390
1633 6611
1632 5523
1631 7677
1630 7316
1629 3271
1628 -1203
1627 811
1626 7357
1625 -341
1624 -10816
1623 -9965
1622 -12311
1621 -6033
1620 2962
1619 2961
1618 1473
1617 7356
1616 5729
1615 -2709
1614 -4180
1613 2492
1612 2820
1611 5007
1610 3539
1609 4748
1608 -1662
1607 -4651
1606 -770
1605 559
1604 -3925
1603 -4878
1602 1022
1601 -1528
1600 -1511
1599 713
1598 3063
1597 -1315
1596 -7594
1595 -11231
1594 -882
1593 7083
1592 8648
1591 5631
1590 9450
1589 3598
1588 -2550
1587 -8747
1586 -8261
1585 -7232
1584 -6456
1583 -7634
1582 -10594
1581 -9453
1580 -1320
1579 142
1578 -740
1577 -2408
1576 -5412
1575 -7107
1574 -2963
1573 4850
1572 5872
1571 644
1570 5572
1569 9102
1568 6421
1567 1718
1566 75
1565 1968
1564 3089
1563 9020
1562 7477
1561 2749
1560 2379
1559 3295
1558 5077
1557 5853
1556 13219
1555 5683
1554 2377
1553 -758
1552 -1091
1551 1541
1550 2080
1549 -31
1548 -505
1547 4021
1546 2208
1545 -7114
1544 -4188
1543 -8472
1542 -13259
1541 -12608
1540 -7245
1539 -6570
1538 -6750
1537 -12753
1536 -10953
1535 -6957
1534 -4399
1533 185
1532 2690
1531 2484
1530 1175
1529 5230
1528 5812
1527 11433
1526 3809
1525 -3475
1524 -2493
1523 -6999
1522 -1912
1521 -748
1520 -5010
1519 -2914
1518 5308
1517 1420
1516 -2629
1515 -6111
1514 -12229
1513 -14135
1512 -11461
1511 -6069
1510 -10822
1509 -14166
1508 -12264
1507 -5184
1506 -3755
1505 -6176
1504 -5093
1503 -1548
1502 245
1501 -280
1500 310
1499 -7113
1498 -3103
1497 -295
1496 1523
1495 -6331
1494 -7559
1493 2632
1492 2899
1491 -5070
1490 678
1489 2962
1488 2245
1487 8040
1486 8866
1485 7247
1484 8340
1483 8180
1482 3564
1481 638
1480 7435
1479 9572
1478 10530
1477 6991
1476 9029
1475 11996
1474 9419
1473 21002
1472 20297
1471 12310
1470 5745
1469 10723
1468 17883
1467 12188
1466 846
1465 -6952
1464 -2999
1463 -333
1462 -1416
1461 277
1460 593
1459 243
1458 6878
1457 9396
1456 3454
1455 4468
1454 3045
1453 2606
1452 3702
1451 8996
1450 5907
1449 -407
1448 -3410
1447 2484
1446 3380
1445 -3877
1444 -3435
1443 8098
1442 2969
1441 -3107
1440 -1628
1439 654
1438 3135
1437 7368
1436 8915
1435 6097
1434 710
1433 -1159
1432 1706
1431 -1049
1430 1736
1429 5339
1428 6653
1427 3045
1426 1199
1425 6029
1424 9670
1423 7634
1422 8670
1421 6623
1420 4500
1419 1901
1418 -4996
1417 -7710
1416 -7054
1415 2854
1414 -769
1413 -7134
1412 -2604
1411 -540
1410 -4702
1409 -6212
1408 -2662
1407 -2981
1406 -6462
1405 -8902
1404 -4406
1403 1137
1402 2271
1401 3547
1400 348
1399 -183
1398 -5454
1397 -802
1396 2213
1395 6255
1394 7975
1393 6395
1392 3613
1391 7926
1390 12183
1389 4971
1388 1299
1387 -784
1386 -1697
1385 -1498
1384 -3247
1383 -740
1382 -2509
1381 2322
1380 5368
1379 11399
1378 13746
1377 13467
1376 9738
1375 4345
1374 332
1373 2062
1372 11336
1371 15532
1370 13533
1369 10491
1368 -2479
1367 -5943
1366 -1493
1365 -2538
1364 -1011
1363 -5814
1362 -10639
1361 -6028
1360 -2385
1359 -2925
1358 -6725
1357 -3553
1356 -6666
1355 -5592
1354 869
1353 -6058
1352 -8648
1351 -5809
1350 -1693
1349 380
1348 3390
1347 3632
1346 3216
1345 3499
1344 77
1343 -1982
1342 6306
1341 4890
1340 5311
1339 11772
1338 15146
1337 13434
1336 12444
1335 12243
1334 14706
1333 10329
1332 -1134
1331 3848
1330 8034
1329 1098
1328 -5758
1327 -6834
1326 -5262
1325 -4206
1324 -7698
1323 -8266
1322 -5727
1321 -3422
1320 -2119
1319 7748
1318 6799
1317 436
1316 1396
1315 3892
1314 562
1313 -2398
1312 -1406
1311 1481
1310 4747
1309 11315
1308 7727
1307 4981
1306 9795
1305 7243
1304 -1434
1303 -1789
1302 -2375
1301 -7468
1300 -6720
1299 -4263
1298 3754
1297 8573
1296 3849
1295 -6665
1294 -13190
1293 -9090
1292 -3320
1291 -5402
1290 -1973
1289 2715
1288 6914
1287 3935
1286 -822
1285 -4045
1284 3345
1283 10642
1282 16934
1281 14567
1280 12278
1279 10933
1278 4851
1277 -1433
1276 -3814
1275 257
1274 557
1273 -3875
1272 -11602
1271 -11010
1270 -3020
1269 3752
1268 -4504
1267 -10370
1266 -11554
1265 -11627
1264 -911
1263 7919
1262 3583
1261 1299
1260 5309
1259 6443
1258 6524
1257 7287
1256 10140
1255 3081
1254 3005
1253 21
1252 -3762
1251 -3681
1250 2638
1249 9108
1248 3308
1247 -2188
1246 -2714
1245 4407
1244 1763
1243 -10004
1242 -12511
1241 -5664
1240 -1497
1239 -219
1238 -3213
1237 -1001
1236 -284
1235 -621
1234 -4348
1233 -6381
1232 -1299
1231 5149
1230 7414
1229 7019
1228 1966
1227 574
1226 728
1225 5994
1224 10440
1223 3790
1222 -3161
1221 -184
1220 -7603
1219 -9059
1218 -1416
1217 -4260
1216 -3548
1215 133
1214 -1328
1213 4064
1212 5425
1211 -3250
1210 -12305
1209 -7811
1208 -1846
1207 3676
1206 14133
1205 12190
1204 8410
1203 4904
1202 -4738
1201 -8548
1200 -1094
1199 5885
1198 4973
1197 701
1196 -5093
1195 -2564
1194 -1582
1193 -2664
1192 -162
1191 2155
1190 -2678
1189 -5451
1188 4968
1187 10877
1186 8854
1185 10223
1184 10314
1183 6600
1182 6795
1181 3507
1180 5485
1179 5959
1178 1038
1177 -4
1176 2735
1175 4166
1174 3338
1173 5132
1172 13610
1171 15213
1170 14025
1169 8330
1168 6152
1167 10272
1166 6580
1165 3556
1164 1033
1163 2826
1162 -3595
1161 -3067
1160 2076
1159 2847
1158 1229
1157 -7151
1156 -994
1155 3632
1154 4195
1153 1385
1152 704
1151 -3917
1150 -2140
1149 3902
1148 2445
1147 1928
1146 8268
1145 4534
1144 -3344
1143 -1411
1142 -10239
1141 -4939
1140 6760
1139 11184
1138 15198
1137 15308
1136 13437
1135 4738
1134 -99
1133 -2055
1132 -3676
1131 413
1130 9429
1129 9505
1128 7497
1127 -1755
1126 -962
1125 580
1124 -3237
1123 -7506
1122 -11541
1121 -7674
1120 -3863
1119 -4524
1118 -3296
1117 -4401
1116 -8406
1115 -6648
1114 -9612
1113 -9031
1112 -7653
1111 -1324
1110 5460
1109 10412
1108 6536
1107 -901
1106 -2753
1105 2416
1104 874
1103 -507
1102 5063
1101 1098
1100 4220
1099 3488
1098 7420
1097 11397
1096 11444
1095 3088
1094 4212
1093 6239
1092 5345
1091 6077
1090 8055
1089 5045
1088 3820
1087 11225
1086 6318
1085 538
1084 1319
1083 4149
1082 2429
1081 7881
1080 10147
1079 4445
1078 -668
1077 955
1076 -1993
1075 2241
1074 5861
1073 -1601
1072 -962
1071 3505
1070 4310
1069 6170
1068 8441
1067 7757
1066 4547
1065 808
1064 4873
1063 7357
1062 6172
1061 3029
1060 1136
1059 1814
1058 4978
1057 -3491
1056 -10194
1055 -6741
1054 -4852
1053 -3569
1052 -233
1051 1249
1050 6352
1049 -2026
1048 -7652
1047 -2972
1046 6603
1045 7138
1044 3361
1043 4738
1042 6231
1041 -169
1040 -3364
1039 -2698
1038 -6429
1037 -5944
1036 -6140
1035 -457
1034 3328
1033 530
1032 -384
1031 649
1030 393
1029 -3667
1028 -8544
1027 -3613
1026 -3921
1025 2923
1024 4160
1023 1111
1022 6817
1021 15866
1020 10363
1019 8212
1018 9746
1017 6766
1016 3585
1015 -1497
1014 -5198
1013 -10772
1012 -5706
1011 -774
1010 1453
1009 -1091
1008 334
1007 2626
1006 3086
1005 3748
1004 1388
1003 4294
1002 -1593
1001 -3935
1000 -4479
999 1508
998 4919
997 2293
996 4196
995 3634
994 -1022
993 2340
992 2378
991 2130
990 8828
989 11115
988 6804
987 302
986 -934
985 2003
984 5593
983 3798
982 4647
981 4632
980 173
979 -4351
978 2209
977 9178
976 9929
975 11262
974 11279
973 8907
972 4824
971 3530
970 6447
969 4278
968 2664
967 1072
966 704
965 -354
964 136
963 5580
962 8820
961 4190
960 4413
959 1214
958 3072
957 1320
956 -3195
955 273
954 -3890
953 -8368
952 -3643
951 6479
950 8052
949 6686
948 3429
947 8662
946 8317
945 7215
944 5164
943 4121
942 12642
941 10267
940 11556
939 9206
938 6164
937 4551
936 11177
935 12797
934 5973
933 4287
932 2041
931 3390
930 5684
929 5576
928 3687
927 6325
926 3283
925 761
924 -1485
923 -4153
922 -60
921 -1193
920 479
919 3210
918 2726
917 3228
916 -1321
915 1753
914 7653
913 6341
912 9493
911 10206
910 1160
909 -6172
908 -576
907 -524
906 -4771
905 -4579
904 2338
903 4375
902 -215
901 -2570
900 -7170
899 -3008
898 -2631
897 -5916
896 -5558
895 -12417
894 -12672
893 -6668
892 -792
891 6343
890 3673
889 -3237
888 -2236
887 183
886 416
885 3274
884 5574
883 1718
882 -527
881 -234
880 339
879 -1714
878 -7263
877 -13991
876 -19138
875 -14860
874 -7436
873 -937
872 -1099
871 -3548
870 -4941
869 -6388
868 7147
867 5242
866 911
865 -803
864 5797
863 5597
862 1744
861 -2500
860 -9891
859 -14175
858 -15642
857 -11865
856 -4961
855 -20
854 -4697
853 -891
852 -6020
851 -10371
850 -2844
849 2694
848 1807
847 -2767
846 995
845 1343
844 394
843 -1861
842 -2066
841 553
840 -3261
839 3389
838 6556
837 5702
836 4776
835 6563
834 4474
833 990
832 4193
831 1592
830 3041
829 8899
828 7448
827 5539
826 3174
825 5182
824 989
823 1248
822 1605
821 1573
820 6556
819 11383
818 11922
817 11076
816 5991
815 8316
814 7394
813 2393
812 -1568
811 -2631
810 -3740
809 356
808 3636
807 7030
806 8414
805 6752
804 4700
803 10338
802 8064
801 3514
800 -396
799 -1138
798 -4083
797 -1578
796 -544
795 635
794 5118
793 6400
792 5457
791 6450
790 5684
789 3067
788 -3056
787 -3518
786 6453
785 7197
784 8372
783 3695
782 6902
781 7708
780 1288
779 -591
778 4035
777 5447
776 393
775 -7434
774 -9921
773 -3315
772 -1644
771 -3938
770 -7580
769 -4320
768 -2255
767 -1632
766 -8772
765 -9133
764 -5183
763 -1860
762 1729
761 9618
760 9368
759 3807
758 2980
757 3959
756 -2730
755 -11374
754 -6995
753 -4091
752 -2045
751 -4320
750 -3276
749 1052
748 4277
747 2241
746 2547
745 8567
744 5683
743 9571
742 6869
741 7482
740 5004
739 -2154
738 -6389
737 -4286
736 1040
735 6262
734 6961
733 -1141
732 -4241
731 -3227
730 -2590
729 -6732
728 -1684
727 1334
726 -3323
725 -5860
724 -7665
723 -8020
722 -5308
721 -4836
720 -1356
719 -5531
718 -9048
717 -7045
716 -5254
715 4144
714 9159
713 10200
712 11618
711 9490
710 3913
709 2682
708 -1385
707 -6357
706 -9046
705 -7589
704 -3478
703 -4345
702 -6362
701 -5160
700 -9880
699 -12316
698 -9123
697 -2951
696 -5150
695 -7436
694 -6142
693 -2583
692 -2226
691 -4529
690 6776
689 4718
688 -1119
687 -5419
686 2006
685 4650
684 -838
683 -597
682 102
681 2253
680 9343
679 8909
678 5582
677 8713
676 4480
675 -3065
674 -732
673 -70
672 -2375
671 -7123
670 -6088
669 -4196
668 -3867
667 -3035
666 -2327
665 1625
664 5531
663 1901
662 1829
661 1498
660 -6897
659 -13311
658 -10684
657 -4221
656 -1858
655 785
654 4611
653 4394
652 -183
651 -8846
650 -8725
649 -4444
648 -3851
647 -2712
646 1569
645 3210
644 -1089
643 -2024
642 -2148
641 -5193
640 400
639 10159
638 11923
637 6617
636 1462
635 189
634 2184
633 2844
632 3865
631 3852
630 -248
629 -5938
628 -12578
627 -12176
626 -5338
625 -3504
624 -1876
623 -2367
622 961
621 2798
620 -6074
619 -11286
618 -4483
617 4827
616 -3877
615 -10671
614 -9955
613 -6271
612 -3237
611 1935
610 7250
609 887
608 -2855
607 -3552
606 -5160
605 -4194
604 3452
603 2419
602 -1640
601 4898
600 8470
599 7224
598 9654
597 11748
596 5978
595 1338
594 -1769
593 -4793
592 -3699
591 12
590 37
589 -3295
588 -2807
587 8251
586 13616
585 10376
584 3094
583 -2292
582 -1882
581 2418
580 802
579 -3257
578 4293
577 2765
576 -4960
575 -11341
574 -4510
573 3661
572 6250
571 7164
570 5266
569 1915
568 705
567 1484
566 -1430
565 -467
564 -7764
563 -3996
562 -1821
561 -1057
560 -5136
559 -9423
558 -7699
557 -8317
556 -1462
555 937
554 2295
553 401
552 -1429
551 -1685
550 1279
549 6794
548 2248
547 6679
546 7093
545 3017
544 189
543 -3945
542 1408
541 5282
540 6134
539 3652
538 3981
537 3860
536 2258
535 6599
534 6195
533 2618
532 -1828
531 -3755
530 -7005
529 -3122
528 -2774
527 -1624
526 1562
525 1353
524 1031
523 -1048
522 -1797
521 5063
520 12750
519 9889
518 1583
517 -3225
516 -3455
515 -4878
514 -3041
513 3993
512 4771
511 2754
510 5473
509 2954
508 3802
507 9413
506 12288
505 -505
504 -2348
503 1724
502 2157
501 7396
500 11293
499 7503
498 -4495
497 -3461
496 7302
495 5320
494 2480
493 -3307
492 -5090
491 -1333
490 829
489 3243
488 2773
487 2706
486 885
485 2532
484 2574
483 1540
482 -3463
481 -211
480 466
479 1246
478 -129
477 -1160
476 431
475 -1470
474 888
473 4896
472 4886
471 -612
470 5280
469 8917
468 2586
467 -1056
466 1902
465 580
464 2793
463 3920
462 2732
461 -922
460 -601
459 1720
458 -1947
457 -8450
456 -5597
455 -11204
454 -9963
453 -7174
452 -7102
451 -3522
450 1186
449 4060
448 6467
447 7713
446 4831
445 1719
444 1804
443 -3869
442 -3826
441 -3579
440 -2473
439 619
438 1618
437 -506
436 -2314
435 1673
434 6471
433 1325
432 -3748
431 -3458
430 -2299
429 -2593
428 1533
427 76
426 2564
425 740
424 -612
423 -3832
422 -7281
421 -1838
420 2741
419 -2951
418 -3637
417 -4388
416 -6285
415 -10624
414 -8969
413 -6838
412 -6212
411 -2453
410 223
409 -1328
408 473
407 1461
406 -1096
405 513
404 3586
403 8117
402 12250
401 6047
400 -1498
399 -4816
398 -3881
397 -1310
396 -660
395 -2571
394 -5026
393 -1198
392 5220
391 1759
390 2142
389 5866
388 6922
387 6519
386 4197
385 3206
384 -532
383 1297
382 2509
381 313
380 1307
379 -3825
378 -7092
377 -2072
376 458
375 7664
374 6386
373 3874
372 -932
371 -1030
370 4013
369 6828
368 6384
367 485
366 -2081
365 2145
364 -3789
363 -1854
362 1308
361 -4408
360 -6210
359 -5258
358 -6213
357 -5649
356 -8551
355 -9149
354 -7259
353 -4476
352 350
351 2462
350 4300
349 7740
348 8315
347 502
346 -2381
345 783
344 -671
343 681
342 -790
341 5488
340 3830
339 -3237
338 -7000
337 -2336
336 946
335 4
334 -5254
333 -9237
332 -10796
331 -11581
330 -4746
329 -180
328 -5838
327 -6436
326 -77
325 5337
324 5802
323 3772
322 2955
321 4377
320 3938
319 -1325
318 -6262
317 -1117
316 -4565
315 -9571
314 -8685
313 -1042
312 5371
311 2557
310 2966
309 1594
308 443
307 135
306 -2634
305 -2184
304 4939
303 8206
302 5172
301 2845
300 4338
299 2716
298 3954
297 3885
296 4120
295 3979
294 4932
293 5129
292 3784
291 3069
290 1017
289 980
288 -3245
287 -1775
286 342
285 -283
284 -2781
283 -831
282 1387
281 2944
280 686
279 -2051
278 -3970
277 -7528
276 -4044
275 2346
274 643
273 1632
272 3406
271 5349
270 2990
269 -482
268 -396
267 814
266 3150
265 3478
264 4690
263 -2906
262 -4183
261 1653
260 3152
259 -643
258 -1590
257 -1440
256 1165
255 2368
254 3097
253 3397
252 4770
251 -927
250 -6726
249 -8260
248 -3810
247 -3335
246 -6791
245 -10331
244 -11608
243 -11025
242 -10408
241 -9278
240 234
239 -76
238 -1722
237 539
236 -522
235 -5030
234 -3075
233 2249
232 4489
231 5734
230 4498
229 4814
228 5109
227 6853
226 6531
225 6266
224 6377
223 5049
222 2346
221 370
220 -1047
219 1512
218 1938
217 1385
216 -5023
215 -9389
214 -6899
213 3944
212 5885
211 3013
210 7935
209 2981
208 -610
207 -3143
206 1010
205 3735
204 5643
203 7293
202 1467
201 -3005
200 -4232
199 -1881
198 -2847
197 -6236
196 -7441
195 -3511
194 -1140
193 -365
192 -1740
191 -1660
190 -1466
189 2929
188 3201
187 -14
186 -2948
185 -2628
184 -1039
183 2489
182 5816
181 4628
180 1595
179 -77
178 -5120
177 -9141
176 -9070
175 -6876
174 -7848
173 -2414
172 889
171 583
170 4473
169 7612
168 7292
167 12533
166 16199
165 10184
164 2204
163 4421
162 1608
161 -2652
160 53
159 5157
158 5609
157 6910
156 -2404
155 -5129
154 786
153 -1737
152 -427
151 497
150 -2077
149 -7220
148 -7311
147 -7218
146 -5662
145 -4715
144 -3460
143 -647
142 -4816
141 -7515
140 -4351
139 -1018
138 -71
137 -4285
136 -6431
135 -1792
134 -1095
133 -6108
132 -9579
131 -10130
130 -12725
129 -11160
128 -7960
127 -8716
126 -7880
125 -8127
124 -5097
123 1640
122 -1076
121 -3928
120 -6074
119 -5760
118 -3720
117 -5958
116 -1586
115 -915
114 -3116
113 -2513
112 2329
111 2844
110 2725
109 2297
108 2802
107 47
106 5
105 625
104 -1074
103 -2970
102 -3201
101 -1208
100 -1331
99 -3780
98 -4732
97 -4467
96 -4365
95 -5771
94 -8073
93 -7709
92 628
91 6208
90 -248
89 -1053
88 -3971
87 -5454
86 -6467
85 -6299
84 -2582
83 -1099
82 -2070
81 2663
80 5952
79 1415
78 724
77 -5507
76 -4233
75 -327
74 1953
73 3837
72 2992
71 3977
70 -2267
69 -6087
68 -7004
67 -7387
66 -7999
65 -6964
64 -4051
63 -745
62 -435
61 -4957
60 -5609
59 -4133
58 -4543
57 -1713
56 -2451
55 -442
54 4270
53 3459
52 2266
51 1204
50 -2649
49 -3947
48 -4592
47 3165
46 2577
45 -3660
44 -1249
43 1070
42 3296
41 3281
40 -716
39 -1899
38 -1063
37 -1354
36 -483
35 -518
34 -2857
33 -8198
32 -9394
31 -9866
30 -7446
29 -4680
28 305
27 330
26 2756
25 -1600
24 -7822
23 -5793
22 -1641
21 -2239
20 -5003
19 -4761
18 -4415
17 -2987
16 416
15 -2146
14 -5927
13 -5005
12 -3142
11 -921
10 -328
9 106
8 -1466
7 -1083
6 356
5 6360
4 4923
3 462
2 -3895
1 -5751
0 -4253
##END=
