##TITLE=IOC-HACK-hunscha
2-Methylbut-1-en-3-in
HSQC.AUT CDCl3 {D:\Bruker\TopSpin} AVIII600 7
##JCAMPDX= 6.0         $$ Bruker NMR JCAMP-DX V2.0
##DATA TYPE= nD NMR SPECTRUM
##DATA CLASS= NTUPLES
##NUM DIM= 2
##ORIGIN= Bruker BioSpin GmbH
##OWNER= AVIII600
##LONG DATE= 2024/10/18 20:03:42+0000
$$ TopSpin 4.4.1
$$ 2025-01-18 15:33:08.079 +0100  User@BUCHWEITZ12
$$ Compression mode = fixed
##.OBSERVE FREQUENCY= 600.131613355444
##.OBSERVE NUCLEUS= ^1H
##.ACQUISITION MODE= SIMULTANEOUS (DQD)
##.ACQUISITION SCHEME= Echo-Antiecho
##.AVERAGES= 4
##.DIGITISER RES= 22
##SPECTROMETER/DATA SYSTEM= spect
##.PULSE SEQUENCE= hsqcedetgpsp.3
##.SOLVENT NAME= CDCl3
##.SHIFT REFERENCE= INTERNAL, CDCl3, 1, 6.109316
##AUDIT TRAIL= $$ (NUMBER, WHEN, WHO, WHERE, PROCESS, VERSION, WHAT)
$$ ##TITLE= Audit trail, TopSpin 3.6.4
$$ ##JCAMPDX= 5.01
$$ ##ORIGIN= Bruker BioSpin GmbH
$$ ##OWNER= AVIII600
$$ $$ D:/Bruker/Topspin/data/AVIII600/nmr/20241018-AVIII600/244/pdata/1/auditp.txt
$$ ##AUDIT TRAIL=  $$ (NUMBER, WHEN, WHO, WHERE, PROCESS, VERSION, WHAT)
(   1,<2024-10-18 22:03:43.077 +0200>,<AVIII600>,<AV3600>,<go4>,<TopSpin 3.6.4>,
      <created by zg on data set with UUID '9b12216e-8d8a-11ef-a13f-3417eba89713'
       started at 2024-10-18 21:53:12.109 +0200,
       POWCHK enabled, PULCHK disabled,
       completed at 2024-10-18 22:03:43.062 +0200
$$ 
       configuration hash MD5:
       0D C6 C0 49 8D 99 C1 70 CD EB EC 3C 46 DE 0A 67
       data hash MD5: 1K * 128
       1C C9 76 C1 BE AA DF 97 56 39 EB 66 27 F4 3E 9B
>)
(   2,<2024-10-18 22:03:43.233 +0200>,<AVIII600>,<AV3600>,<audit>,<TopSpin 3.6.4>,
      <user comment:
       ICON-NMR User ID: AVIII600
       data hash MD5: 1K * 128
       1C C9 76 C1 BE AA DF 97 56 39 EB 66 27 F4 3E 9B>)
(   3,<2024-10-18 22:03:47.077 +0200>,<AVIII600>,<AV3600>,<proc2d>,<TopSpin 3.6.4>,
      <Start of raw data processing
       xfb same F2: SI = 1K WDW = 4 SSB = 2 FT_mod = 6 PKNL = 1 PHC0 = 132.2698 PHC1 = -2.356368 F1: SI = 256 ME_mod = 2 NCOEF = 32 WDW = 4 SSB = 2 FT_mod = 6 FCOR = 0.5 PHC0 = 0 PHC1 = 0
       data hash MD5: 1K * 256
       2F 6D FD 4B 1C 3F 95 99 2C 04 9D CB C2 EE 11 97>)
(   4,<2024-10-18 22:03:47.202 +0200>,<AVIII600>,<AV3600>,<proc2d>,<TopSpin 3.6.4>,
      <abs2 F2: ABSG = 5 ABSF1 = 6.109316 ABSF2 = -0.7762445
       data hash MD5: 1K * 256
       D0 98 E1 50 C3 E5 CF 53 1A 9D 61 75 B8 AA FC E2>)
(   5,<2024-10-18 22:03:47.343 +0200>,<AVIII600>,<AV3600>,<proc2d>,<TopSpin 3.6.4>,
      <abs1 F1: ABSG = 5 ABSF1 = 170.0409 ABSF2 = -10.0347
       data hash MD5: 1K * 256
       3B 7A 4D F6 33 AA 12 46 63 99 F1 74 70 BF 82 30>)
$$ $$ Z:/data/Datenbank/Erstellte Datenbank/2-Methylbut-1-en-3-in/244/pdata/1/auditp.txt
(   6,<2024-10-25T14:51:33.780+0200>,<Tobias>,<NMR09>,<proc2d>,<TopSpin 4.4.0>,
      <Start of raw data processing
       xfb F2: SI = 1K WDW = 4 SSB = 2 FT_mod = 6 PKNL = 1 PHC0 = 132.2698 PHC1 = -2.356368 F1: SI = 256 ME_mod = 2 NCOEF = 32 WDW = 4 SSB = 2 FT_mod = 6 FCOR = 0.5 PHC0 = 0 PHC1 = 0
       data hash MD5: 1K * 256
       2F 6D FD 4B 1C 3F 95 99 2C 04 9D CB C2 EE 11 97>)
(   7,<2024-10-25T14:51:37.829+0200>,<Tobias>,<NMR09>,<apkm>,<TopSpin 4.4.0>,
      <apkm
       data hash MD5: 1K * 256
       88 7F DE 17 3C 84 39 9C AA 2E 90 4D 71 2C 00 2B>)
(   8,<2024-10-25T14:51:39.032+0200>,<Tobias>,<NMR09>,<proc2d>,<TopSpin 4.4.0>,
      <abs1 F1: ABSG = 5 ABSF1 = 170.0409 ABSF2 = -10.0347
       data hash MD5: 1K * 256
       01 0C 1F 56 05 56 D7 2D CE BD E6 32 27 5E 96 C4>)
(   9,<2024-10-25T14:51:40.198+0200>,<Tobias>,<NMR09>,<proc2d>,<TopSpin 4.4.0>,
      <abs2 F2: ABSG = 5 ABSF1 = 6.109316 ABSF2 = -0.7762445
       data hash MD5: 1K * 256
       F8 5F AC D5 0F 05 56 57 ED 2C CA DF 4E 25 6A FC>)
$$ $$ C:/Users/User/Nextcloud/Studium/NMR/NMR_spectra from databank/2-Methylbut-1-en-3-in/244/pdata/1/auditp.txt
(  10,<2025-01-18T15:31:35.663+0100>,<User>,<BUCHWEITZ12>,<proc2d>,<TopSpin 4.4.1>,
      <pk2 fgphup F2: PHC0 = 150.0758 PHC1 = -1421.6
       data hash MD5: 1K * 256
       04 00 18 9D 45 0F 89 BA 16 51 04 58 A2 B7 E6 9E>)
(  11,<2025-01-18T15:31:45.326+0100>,<User>,<BUCHWEITZ12>,<proc2d>,<TopSpin 4.4.1>,
      <pk1 fgphup F1: PHC0 = 0 PHC1 = 0
       data hash MD5: 1K * 256
       04 00 18 9D 45 0F 89 BA 16 51 04 58 A2 B7 E6 9E>)
$$ ##END=
$$ 
$$ $$ hash MD5
$$ $$ 8C AF 8B B4 73 AF 03 1E 6A E3 06 57 4E 91 92 C9
##$RELAX= 
##$BRUKER FILE EXP=cpdprg2
$$ #setphase
$$ bilev "l31=(nsdone+ds)%4+1"
$$ 1 p63*0.5:sp14:0 pl=sp14
$$   lo to 1 times l31
$$   p63:sp31:0 pl=sp31
$$ 2 p63:sp31:150
$$   p63:sp31:60
$$   p63:sp31:150
$$   p63:sp31:0
$$   p63:sp31:0 
$$   p63:sp31:150
$$   p63:sp31:60
$$   p63:sp31:150
$$   p63:sp31:0
$$   p63:sp31:180 
$$   p63:sp31:330
$$   p63:sp31:240
$$   p63:sp31:330
$$   p63:sp31:180
$$   p63:sp31:180 
$$   p63:sp31:330
$$   p63:sp31:240
$$   p63:sp31:330
$$   p63:sp31:180
$$   p63:sp31:0
$$   jump to 2
##$RELAX= 
##$BRUKER FILE EXP=format.temp
$$ EDIT_PAR COMMAND FILE
$$ 
$$ DI_MODE         LONG
$$ ED_ENTRY        ACQU
$$ ORDER           FILE
$$ 
$$ 
$$ HEADER		"F2 - Acquisition Parameters"
$$ T_NAME		Date_
$$ 		TYPE	R64
$$ 		CLASS	ACQU
$$ 		SUBRANGE 0.0 50000000
$$ 		REL	"Date_=itodate(DATE)"
$$ 		INV_REL	"DATE=datetoi(Date_,DATE)"
$$ 		FORMAT	"%14.0f"
$$ 		TEXT	" "
$$ END
$$ T_NAME		Time
$$ 		TYPE	R32
$$ 		CLASS	ACQU
$$ 		SUBRANGE 0.0 1000000
$$ 		REL	"Time=itotime(DATE)"
$$ 		INV_REL	"DATE=timetoi(Time,DATE)"
$$ 		FORMAT	"%14.2f h"
$$ 		TEXT	" "
$$ END
$$ NAME		INSTRUM
$$ 		TEXT	" "
$$ END
$$ NAME		PROBHD
$$ 		FORMAT	"%14.14s"
$$ 		TEXT	" "
$$ END
$$ NAME		PULPROG
$$ 		TEXT	" "
$$ END
$$ NAME		TD
$$ 		TEXT	" "
$$ END
$$ NAME		SOLVENT
$$ 		TEXT	" "
$$ END
$$ NAME		NS
$$ 		TEXT	" "
$$ END
$$ NAME		DS
$$ 		TEXT	" "
$$ END
$$ T_NAME		SWH
$$ 		TYPE	R32
$$ 		CLASS	ACQU
$$ 		SUBRANGE 0.0 1e8
$$ 		REL	"SWH=SW*SFO1"
$$ 		INV_REL "SW=SWH/SFO1"
$$ 		UNIT	"Hz"
$$ 		FORMAT	"%14.3f Hz"
$$ 		TEXT	" "
$$ END
$$ T_NAME          FIDRES
$$                 TYPE    R32
$$                 CLASS   ACQU
$$                 SUBRANGE 0.0 100000
$$                 REL     "FIDRES=2*SW*SFO1/TD"
$$                 INV_REL "TD = nextpow(2*SW*SFO1/FIDRES)"
$$ 		UNIT	"Hz"
$$ 		FORMAT	"%14.6f Hz"
$$ 		TEXT	" "
$$ END
$$ T_NAME          AQ
$$ 		TYPE	R32
$$ 		CLASS	ACQU
$$ 		SUBRANGE 0.0 1000
$$ 		REL	"AQ=aqcalc(SW,SFO1,TD,DIGTYP)"
$$ 		INV_REL	"TD=tdcalc(SW,SFO1,1.0e6*AQ,DIGTYP)"
$$ 		UNIT	"sec"
$$ 		FORMAT	"%14.7f sec"
$$ 		TEXT	" "
$$ END
$$ NAME		RG
$$ 		TEXT	" "
$$ END
$$ T_NAME          DW
$$ 		TYPE	R32
$$ 		CLASS	ACQU
$$ 		SUBRANGE 0.0 1000000
$$ 		REL	"DW=1/(2*SW*SFO1)"
$$ 		INV_REL	"SW=1000000/(2*(0.005+DW)*SFO1)"
$$ 		UNIT	"usec"
$$ 		FORMAT	"%14.3lf usec"
$$ 		TEXT	" "
$$ END
$$ NAME		DE
$$ 		FORMAT	"%14.2f usec"
$$ 		TEXT	" "
$$ END
$$ NAME		TE
$$ 		FORMAT	"%14.1f K"
$$ 		TEXT	" "
$$ END
$$ T_NAME		CNST2
$$ 		TYPE	R32
$$ 		CLASS	ACQU
$$ 		SUBRANGE -1e38 1e38
$$ 		REL	"CNST2=CNST[2]"
$$ 		INV_REL	"CNST[2]=CNST2"
$$ 		FORMAT	"%14.7f"
$$ 		TEXT	" "
$$ END
$$ T_NAME		D0
$$ 		TYPE	R32
$$ 		CLASS	ACQU
$$ 		SUBRANGE 0.0 1e38
$$ 		REL	"D0=D[0]"
$$ 		INV_REL	"D[0]=D0"
$$ 		UNIT	"sec"
$$ 		FORMAT	"%14.8f sec"
$$ 		TEXT	" "
$$ END
$$ T_NAME		D1
$$ 		TYPE	R32
$$ 		CLASS	ACQU
$$ 		SUBRANGE 0.0 1e38
$$ 		REL	"D1=D[1]"
$$ 		INV_REL	"D[1]=D1"
$$ 		UNIT	"sec"
$$ 		FORMAT	"%14.8f sec"
$$ 		TEXT	" "
$$ END
$$ T_NAME		D4
$$ 		TYPE	R32
$$ 		CLASS	ACQU
$$ 		SUBRANGE 0.0 1e38
$$ 		REL	"D4=D[4]"
$$ 		INV_REL	"D[4]=D4"
$$ 		UNIT	"sec"
$$ 		FORMAT	"%14.8f sec"
$$ 		TEXT	" "
$$ END
$$ T_NAME		D11
$$ 		TYPE	R32
$$ 		CLASS	ACQU
$$ 		SUBRANGE 0.0 1e38
$$ 		REL	"D11=D[11]"
$$ 		INV_REL	"D[11]=D11"
$$ 		UNIT	"sec"
$$ 		FORMAT	"%14.8f sec"
$$ 		TEXT	" "
$$ END
$$ T_NAME		D16
$$ 		TYPE	R32
$$ 		CLASS	ACQU
$$ 		SUBRANGE 0.0 1e38
$$ 		REL	"D16=D[16]"
$$ 		INV_REL	"D[16]=D16"
$$ 		UNIT	"sec"
$$ 		FORMAT	"%14.8f sec"
$$ 		TEXT	" "
$$ END
$$ T_NAME		D21
$$ 		TYPE	R32
$$ 		CLASS	ACQU
$$ 		SUBRANGE 0.0 1e38
$$ 		REL	"D21=D[21]"
$$ 		INV_REL	"D[21]=D21"
$$ 		UNIT	"sec"
$$ 		FORMAT	"%14.8f sec"
$$ 		TEXT	" "
$$ END
$$ T_NAME		IN0
$$ 		TYPE	R32
$$ 		CLASS	ACQU
$$ 		SUBRANGE 0.0 1e38
$$ 		REL	"IN0=IN[0]"
$$ 		INV_REL	"IN[0]=IN0"
$$ 		UNIT	"sec"
$$ 		FORMAT	"%14.8f sec"
$$ 		TEXT	" "
$$ END
$$ NAME		TDav
$$ 		TEXT	" "
$$ END
$$ NAME		ZGOPTNS
$$ 		TEXT	" "
$$ END
$$ NAME		SFO1
$$ 		FORMAT	"%14.7f MHz"
$$ 		TEXT	" "
$$ END
$$ NAME		NUC1
$$ 		NONEDIT
$$ 		TEXT	" "
$$ END
$$ T_NAME		P1
$$ 		TYPE	R32
$$ 		CLASS	ACQU
$$ 		SUBRANGE 0.0 1.0e10
$$ 		REL	"P1=P[1]"
$$ 		INV_REL	"P[1]=P1"
$$ 		UNIT	"usec"
$$ 		FORMAT	"%14.2f usec"
$$ 		TEXT	" "
$$ END
$$ T_NAME		P2
$$ 		TYPE	R32
$$ 		CLASS	ACQU
$$ 		SUBRANGE 0.0 1.0e10
$$ 		REL	"P2=P[2]"
$$ 		INV_REL	"P[2]=P2"
$$ 		UNIT	"usec"
$$ 		FORMAT	"%14.2f usec"
$$ 		TEXT	" "
$$ END
$$ T_NAME		PLW1
$$ 		TYPE	R32
$$ 		CLASS	ACQU
$$ 		REL	"PLW1=PLW[1]"
$$ 		INV_REL	"PLW[1]=PLW1"
$$ 		UNIT	"W"
$$ 		FORMAT	"%14.8f W"
$$ 		TEXT	"power PLW1 "
$$ END
$$ NAME		SFO2
$$ 		FORMAT	"%14.7f MHz"
$$ 		TEXT	" "
$$ END
$$ NAME		NUC2
$$ 		NONEDIT
$$ 		TEXT	" "
$$ END
$$ NAME		CPDPRG[2]
$$ 		TEXT	" "
$$ END
$$ T_NAME		P3
$$ 		TYPE	R32
$$ 		CLASS	ACQU
$$ 		SUBRANGE 0.0 1.0e10
$$ 		REL	"P3=P[3]"
$$ 		INV_REL	"P[3]=P3"
$$ 		UNIT	"usec"
$$ 		FORMAT	"%14.2f usec"
$$ 		TEXT	" "
$$ END
$$ T_NAME		P14
$$ 		TYPE	R32
$$ 		CLASS	ACQU
$$ 		SUBRANGE 0.0 1.0e10
$$ 		REL	"P14=P[14]"
$$ 		INV_REL	"P[14]=P14"
$$ 		UNIT	"usec"
$$ 		FORMAT	"%14.2f usec"
$$ 		TEXT	" "
$$ END
$$ T_NAME		P31
$$ 		TYPE	R32
$$ 		CLASS	ACQU
$$ 		SUBRANGE 0.0 1.0e10
$$ 		REL	"P31=P[31]"
$$ 		INV_REL	"P[31]=P31"
$$ 		UNIT	"usec"
$$ 		FORMAT	"%14.2f usec"
$$ 		TEXT	" "
$$ END
$$ T_NAME		P63
$$ 		TYPE	R32
$$ 		CLASS	ACQU
$$ 		SUBRANGE 0.0 1.0e10
$$ 		REL	"P63=P[63]"
$$ 		INV_REL	"P[63]=P63"
$$ 		UNIT	"usec"
$$ 		FORMAT	"%14.2f usec"
$$ 		TEXT	" "
$$ END
$$ T_NAME		PLW0
$$ 		TYPE	R32
$$ 		CLASS	ACQU
$$ 		REL	"PLW0=PLW[0]"
$$ 		INV_REL	"PLW[0]=PLW0"
$$ 		UNIT	"W"
$$ 		FORMAT	"%14.8f W"
$$ 		TEXT	"power PLW0 "
$$ END
$$ T_NAME		PLW2
$$ 		TYPE	R32
$$ 		CLASS	ACQU
$$ 		REL	"PLW2=PLW[2]"
$$ 		INV_REL	"PLW[2]=PLW2"
$$ 		UNIT	"W"
$$ 		FORMAT	"%14.8f W"
$$ 		TEXT	"power PLW2 "
$$ END
$$ T_NAME		PLW12
$$ 		TYPE	R32
$$ 		CLASS	ACQU
$$ 		REL	"PLW12=PLW[12]"
$$ 		INV_REL	"PLW[12]=PLW12"
$$ 		UNIT	"W"
$$ 		FORMAT	"%14.8f W"
$$ 		TEXT	"power PLW12 "
$$ END
$$ NAME		SPNAM[3]
$$ 		TEXT	" "
$$ END
$$ T_NAME		SPOAL3
$$ 		TYPE	R32
$$ 		CLASS	ACQU
$$ 		SUBRANGE -1.0 1.0
$$ 		REL	"SPOAL3=SPOAL[3]"
$$ 		INV_REL	"SPOAL[3]=SPOAL3"
$$ 		FORMAT	"%14.3f"
$$ 		TEXT	" "
$$ END
$$ T_NAME		SPOFFS3
$$ 		TYPE	R32
$$ 		CLASS	ACQU
$$ 		SUBRANGE -1e38 1e38
$$ 		REL	"SPOFFS3=SPOFFS[3]"
$$ 		INV_REL	"SPOFFS[0]=SPOFFS0"
$$ 		UNIT	"Hz"
$$ 		FORMAT	"%14.2f Hz"
$$ 		TEXT	" "
$$ END
$$ T_NAME		SPW3
$$ 		TYPE	R32
$$ 		CLASS	ACQU
$$ 		REL	"SPW3=SPW[3]"
$$ 		INV_REL	"SPW[3]=SPW3"
$$ 		UNIT	"W"
$$ 		FORMAT	"%14.8f W"
$$ 		TEXT	"shaped pulse power SPW3"
$$ END
$$ NAME		SPNAM[14]
$$ 		TEXT	" "
$$ END
$$ T_NAME		SPOAL14
$$ 		TYPE	R32
$$ 		CLASS	ACQU
$$ 		SUBRANGE -1.0 1.0
$$ 		REL	"SPOAL14=SPOAL[14]"
$$ 		INV_REL	"SPOAL[14]=SPOAL14"
$$ 		FORMAT	"%14.3f"
$$ 		TEXT	" "
$$ END
$$ T_NAME		SPOFFS14
$$ 		TYPE	R32
$$ 		CLASS	ACQU
$$ 		SUBRANGE -1e38 1e38
$$ 		REL	"SPOFFS14=SPOFFS[14]"
$$ 		INV_REL	"SPOFFS[0]=SPOFFS0"
$$ 		UNIT	"Hz"
$$ 		FORMAT	"%14.2f Hz"
$$ 		TEXT	" "
$$ END
$$ T_NAME		SPW14
$$ 		TYPE	R32
$$ 		CLASS	ACQU
$$ 		REL	"SPW14=SPW[14]"
$$ 		INV_REL	"SPW[14]=SPW14"
$$ 		UNIT	"W"
$$ 		FORMAT	"%14.8f W"
$$ 		TEXT	"shaped pulse power SPW14"
$$ END
$$ NAME		SPNAM[18]
$$ 		TEXT	" "
$$ END
$$ T_NAME		SPOAL18
$$ 		TYPE	R32
$$ 		CLASS	ACQU
$$ 		SUBRANGE -1.0 1.0
$$ 		REL	"SPOAL18=SPOAL[18]"
$$ 		INV_REL	"SPOAL[18]=SPOAL18"
$$ 		FORMAT	"%14.3f"
$$ 		TEXT	" "
$$ END
$$ T_NAME		SPOFFS18
$$ 		TYPE	R32
$$ 		CLASS	ACQU
$$ 		SUBRANGE -1e38 1e38
$$ 		REL	"SPOFFS18=SPOFFS[18]"
$$ 		INV_REL	"SPOFFS[0]=SPOFFS0"
$$ 		UNIT	"Hz"
$$ 		FORMAT	"%14.2f Hz"
$$ 		TEXT	" "
$$ END
$$ T_NAME		SPW18
$$ 		TYPE	R32
$$ 		CLASS	ACQU
$$ 		REL	"SPW18=SPW[18]"
$$ 		INV_REL	"SPW[18]=SPW18"
$$ 		UNIT	"W"
$$ 		FORMAT	"%14.8f W"
$$ 		TEXT	"shaped pulse power SPW18"
$$ END
$$ NAME		SPNAM[31]
$$ 		TEXT	" "
$$ END
$$ T_NAME		SPOAL31
$$ 		TYPE	R32
$$ 		CLASS	ACQU
$$ 		SUBRANGE -1.0 1.0
$$ 		REL	"SPOAL31=SPOAL[31]"
$$ 		INV_REL	"SPOAL[31]=SPOAL31"
$$ 		FORMAT	"%14.3f"
$$ 		TEXT	" "
$$ END
$$ T_NAME		SPOFFS31
$$ 		TYPE	R32
$$ 		CLASS	ACQU
$$ 		SUBRANGE -1e38 1e38
$$ 		REL	"SPOFFS31=SPOFFS[31]"
$$ 		INV_REL	"SPOFFS[0]=SPOFFS0"
$$ 		UNIT	"Hz"
$$ 		FORMAT	"%14.2f Hz"
$$ 		TEXT	" "
$$ END
$$ T_NAME		SPW31
$$ 		TYPE	R32
$$ 		CLASS	ACQU
$$ 		REL	"SPW31=SPW[31]"
$$ 		INV_REL	"SPW[31]=SPW31"
$$ 		UNIT	"W"
$$ 		FORMAT	"%14.8f W"
$$ 		TEXT	"shaped pulse power SPW31"
$$ END
$$ NAME		GPNAM[1]
$$ 		TEXT	" "
$$ END
$$ T_NAME		GPZ1
$$ 		TYPE	R32
$$ 		CLASS	ACQU
$$ 		SUBRANGE -100.0 100.0
$$ 		REL	"GPZ1=GPZ[1]"
$$ 		INV_REL	"GPZ[1]=GPZ1"
$$ 		UNIT	"%"
$$ 		FORMAT	"%14.2f %"
$$ 		TEXT	" "
$$ END
$$ NAME		GPNAM[2]
$$ 		TEXT	" "
$$ END
$$ T_NAME		GPZ2
$$ 		TYPE	R32
$$ 		CLASS	ACQU
$$ 		SUBRANGE -100.0 100.0
$$ 		REL	"GPZ2=GPZ[2]"
$$ 		INV_REL	"GPZ[2]=GPZ2"
$$ 		UNIT	"%"
$$ 		FORMAT	"%14.2f %"
$$ 		TEXT	" "
$$ END
$$ T_NAME		P16
$$ 		TYPE	R32
$$ 		CLASS	ACQU
$$ 		SUBRANGE 0.0 1.0e10
$$ 		REL	"P16=P[16]"
$$ 		INV_REL	"P[16]=P16"
$$ 		UNIT	"usec"
$$ 		FORMAT	"%14.2f usec"
$$ 		TEXT	" "
$$ END
##$RELAX= 
##$BRUKER FILE EXP=fq1list
$$ O 600.133901
$$ -5000000
$$ -4968750
$$ -4937500
$$ -4906250
$$ -4875000
$$ -4843750
$$ -4812500
$$ -4781250
$$ -4750000
$$ -4718750
$$ -4687500
$$ -4656250
$$ -4625000
$$ -4593750
$$ -4562500
$$ -4531250
$$ -4500000
$$ -4468750
$$ -4437500
$$ -4406250
$$ -4375000
$$ -4343750
$$ -4312500
$$ -4281250
$$ -4250000
$$ -4218750
$$ -4187500
$$ -4156250
$$ -4125000
$$ -4093750
$$ -4062500
$$ -4031250
$$ -4000000
$$ -3968750
$$ -3937500
$$ -3906250
$$ -3875000
$$ -3843750
$$ -3812500
$$ -3781250
$$ -3750000
$$ -3718750
$$ -3687500
$$ -3656250
$$ -3625000
$$ -3593750
$$ -3562500
$$ -3531250
$$ -3500000
$$ -3468750
$$ -3437500
$$ -3406250
$$ -3375000
$$ -3343750
$$ -3312500
$$ -3281250
$$ -3250000
$$ -3218750
$$ -3187500
$$ -3156250
$$ -3125000
$$ -3093750
$$ -3062500
$$ -3031250
$$ -3000000
$$ -2968750
$$ -2937500
$$ -2906250
$$ -2875000
$$ -2843750
$$ -2812500
$$ -2781250
$$ -2750000
$$ -2718750
$$ -2687500
$$ -2656250
$$ -2625000
$$ -2593750
$$ -2562500
$$ -2531250
$$ -2500000
$$ -2468750
$$ -2437500
$$ -2406250
$$ -2375000
$$ -2343750
$$ -2312500
$$ -2281250
$$ -2250000
$$ -2218750
$$ -2187500
$$ -2156250
$$ -2125000
$$ -2093750
$$ -2062500
$$ -2031250
$$ -2000000
$$ -1968750
$$ -1937500
$$ -1906250
$$ -1875000
$$ -1843750
$$ -1812500
$$ -1781250
$$ -1750000
$$ -1718750
$$ -1687500
$$ -1656250
$$ -1625000
$$ -1593750
$$ -1562500
$$ -1531250
$$ -1500000
$$ -1468750
$$ -1437500
$$ -1406250
$$ -1375000
$$ -1343750
$$ -1312500
$$ -1281250
$$ -1250000
$$ -1218750
$$ -1187500
$$ -1156250
$$ -1125000
$$ -1093750
$$ -1062500
$$ -1031250
$$ -1000000
$$  -992157
$$  -984314
$$  -976471
$$  -968627
$$  -960784
$$  -952941
$$  -945098
$$  -937255
$$  -929412
$$  -921569
$$  -913725
$$  -905882
$$  -898039
$$  -890196
$$  -882353
$$  -874510
$$  -866667
$$  -858824
$$  -850980
$$  -843137
$$  -835294
$$  -827451
$$  -819608
$$  -811765
$$  -803922
$$  -796078
$$  -788235
$$  -780392
$$  -772549
$$  -764706
$$  -756863
$$  -749020
$$  -741176
$$  -733333
$$  -725490
$$  -717647
$$  -709804
$$  -701961
$$  -694118
$$  -686275
$$  -678431
$$  -670588
$$  -662745
$$  -654902
$$  -647059
$$  -639216
$$  -631373
$$  -623529
$$  -615686
$$  -607843
$$  -600000
$$  -592157
$$  -584314
$$  -576471
$$  -568627
$$  -560784
$$  -552941
$$  -545098
$$  -537255
$$  -529412
$$  -521569
$$  -513725
$$  -505882
$$  -498039
$$  -490196
$$  -482353
$$  -474510
$$  -466667
$$  -458824
$$  -450980
$$  -443137
$$  -435294
$$  -427451
$$  -419608
$$  -411765
$$  -403922
$$  -396078
$$  -388235
$$  -380392
$$  -372549
$$  -364706
$$  -356863
$$  -349020
$$  -341176
$$  -333333
$$  -325490
$$  -317647
$$  -309804
$$  -301961
$$  -294118
$$  -286275
$$  -278431
$$  -270588
$$  -262745
$$  -254902
$$  -247059
$$  -239216
$$  -231373
$$  -223529
$$  -215686
$$  -207843
$$  -200000
$$  -192157
$$  -184314
$$  -176471
$$  -168627
$$  -160784
$$  -152941
$$  -145098
$$  -137255
$$  -129412
$$  -121569
$$  -113725
$$  -105882
$$   -98039
$$   -90196
$$   -82353
$$   -74510
$$   -66667
$$   -58824
$$   -50980
$$   -43137
$$   -35294
$$   -27451
$$   -19608
$$   -11765
$$    -3922
$$     3922
$$    11765
$$    19608
$$    27451
$$    35294
$$    43137
$$    50980
$$    58824
$$    66667
$$    74510
$$    82353
$$    90196
$$    98039
$$   105882
$$   113725
$$   121569
$$   129412
$$   137255
$$   145098
$$   152941
$$   160784
$$   168627
$$   176471
$$   184314
$$   192157
$$   200000
$$   207843
$$   215686
$$   223529
$$   231373
$$   239216
$$   247059
$$   254902
$$   262745
$$   270588
$$   278431
$$   286275
$$   294118
$$   301961
$$   309804
$$   317647
$$   325490
$$   333333
$$   341176
$$   349020
$$   356863
$$   364706
$$   372549
$$   380392
$$   388235
$$   396078
$$   403922
$$   411765
$$   419608
$$   427451
$$   435294
$$   443137
$$   450980
$$   458824
$$   466667
$$   474510
$$   482353
$$   490196
$$   498039
$$   505882
$$   513725
$$   521569
$$   529412
$$   537255
$$   545098
$$   552941
$$   560784
$$   568627
$$   576471
$$   584314
$$   592157
$$   600000
$$   607843
$$   615686
$$   623529
$$   631373
$$   639216
$$   647059
$$   654902
$$   662745
$$   670588
$$   678431
$$   686275
$$   694118
$$   701961
$$   709804
$$   717647
$$   725490
$$   733333
$$   741176
$$   749020
$$   756863
$$   764706
$$   772549
$$   780392
$$   788235
$$   796078
$$   803922
$$   811765
$$   819608
$$   827451
$$   835294
$$   843137
$$   850980
$$   858824
$$   866667
$$   874510
$$   882353
$$   890196
$$   898039
$$   905882
$$   913725
$$   921569
$$   929412
$$   937255
$$   945098
$$   952941
$$   960784
$$   968627
$$   976471
$$   984314
$$   992157
$$  1000000
$$  1031250
$$  1062500
$$  1093750
$$  1125000
$$  1156250
$$  1187500
$$  1218750
$$  1250000
$$  1281250
$$  1312500
$$  1343750
$$  1375000
$$  1406250
$$  1437500
$$  1468750
$$  1500000
$$  1531250
$$  1562500
$$  1593750
$$  1625000
$$  1656250
$$  1687500
$$  1718750
$$  1750000
$$  1781250
$$  1812500
$$  1843750
$$  1875000
$$  1906250
$$  1937500
$$  1968750
$$  2000000
$$  2031250
$$  2062500
$$  2093750
$$  2125000
$$  2156250
$$  2187500
$$  2218750
$$  2250000
$$  2281250
$$  2312500
$$  2343750
$$  2375000
$$  2406250
$$  2437500
$$  2468750
$$  2500000
$$  2531250
$$  2562500
$$  2593750
$$  2625000
$$  2656250
$$  2687500
$$  2718750
$$  2750000
$$  2781250
$$  2812500
$$  2843750
$$  2875000
$$  2906250
$$  2937500
$$  2968750
$$  3000000
$$  3031250
$$  3062500
$$  3093750
$$  3125000
$$  3156250
$$  3187500
$$  3218750
$$  3250000
$$  3281250
$$  3312500
$$  3343750
$$  3375000
$$  3406250
$$  3437500
$$  3468750
$$  3500000
$$  3531250
$$  3562500
$$  3593750
$$  3625000
$$  3656250
$$  3687500
$$  3718750
$$  3750000
$$  3781250
$$  3812500
$$  3843750
$$  3875000
$$  3906250
$$  3937500
$$  3968750
$$  4000000
$$  4031250
$$  4062500
$$  4093750
$$  4125000
$$  4156250
$$  4187500
$$  4218750
$$  4250000
$$  4281250
$$  4312500
$$  4343750
$$  4375000
$$  4406250
$$  4437500
$$  4468750
$$  4500000
$$  4531250
$$  4562500
$$  4593750
$$  4625000
$$  4656250
$$  4687500
$$  4718750
$$  4750000
$$  4781250
$$  4812500
$$  4843750
$$  4875000
$$  4906250
$$  4937500
$$  4968750
$$  5000000
##$RELAX= 
##$BRUKER FILE EXP=gpnam1
$$ ##TITLE= SmoothedChirp Amplitide
$$ ##JCAMP-DX= 5.00 Bruker JCAMP library
$$ ##DATA TYPE= Shape Data
$$ ##ORIGIN= Bruker BioSpin GmbH
$$ ##OWNER= <demo>
$$ ##DATE= 2004/09/06
$$ ##TIME= 16:28:02
$$ ##$SHAPE_PARAMETERS= Type: SmoothedSquare
$$ ##MINX= 0.000000E00
$$ ##MAXX= 1.000000E02
$$ ##MINY= 0.000000E00
$$ ##MAXY= 1.000000E00
$$ ##$SHAPE_EXMODE= Gradient
$$ ##$SHAPE_TOTROT= 0.000000E00
$$ ##$SHAPE_TYPE= None
$$ ##$SHAPE_USER_DEF= 
$$ ##$SHAPE_REPHFAC= 
$$ ##$SHAPE_BWFAC= 0.000000E00
$$ ##$SHAPE_BWFAC50= 
$$ ##$SHAPE_INTEGFAC= 9.000000E-01
$$ ##$SHAPE_MODE= 0
$$ ##NPOINTS= 100
$$ ##XYDATA= (X++(Y..Y))
$$ 0.000000E00
$$ 3.015369E-02
$$ 1.169778E-01
$$ 2.500000E-01
$$ 4.131759E-01
$$ 5.868241E-01
$$ 7.500000E-01
$$ 8.830222E-01
$$ 9.698463E-01
$$ 1.000000E00
$$ 1.000000E00
$$ 1.000000E00
$$ 1.000000E00
$$ 1.000000E00
$$ 1.000000E00
$$ 1.000000E00
$$ 1.000000E00
$$ 1.000000E00
$$ 1.000000E00
$$ 1.000000E00
$$ 1.000000E00
$$ 1.000000E00
$$ 1.000000E00
$$ 1.000000E00
$$ 1.000000E00
$$ 1.000000E00
$$ 1.000000E00
$$ 1.000000E00
$$ 1.000000E00
$$ 1.000000E00
$$ 1.000000E00
$$ 1.000000E00
$$ 1.000000E00
$$ 1.000000E00
$$ 1.000000E00
$$ 1.000000E00
$$ 1.000000E00
$$ 1.000000E00
$$ 1.000000E00
$$ 1.000000E00
$$ 1.000000E00
$$ 1.000000E00
$$ 1.000000E00
$$ 1.000000E00
$$ 1.000000E00
$$ 1.000000E00
$$ 1.000000E00
$$ 1.000000E00
$$ 1.000000E00
$$ 1.000000E00
$$ 1.000000E00
$$ 1.000000E00
$$ 1.000000E00
$$ 1.000000E00
$$ 1.000000E00
$$ 1.000000E00
$$ 1.000000E00
$$ 1.000000E00
$$ 1.000000E00
$$ 1.000000E00
$$ 1.000000E00
$$ 1.000000E00
$$ 1.000000E00
$$ 1.000000E00
$$ 1.000000E00
$$ 1.000000E00
$$ 1.000000E00
$$ 1.000000E00
$$ 1.000000E00
$$ 1.000000E00
$$ 1.000000E00
$$ 1.000000E00
$$ 1.000000E00
$$ 1.000000E00
$$ 1.000000E00
$$ 1.000000E00
$$ 1.000000E00
$$ 1.000000E00
$$ 1.000000E00
$$ 1.000000E00
$$ 1.000000E00
$$ 1.000000E00
$$ 1.000000E00
$$ 1.000000E00
$$ 1.000000E00
$$ 1.000000E00
$$ 1.000000E00
$$ 1.000000E00
$$ 1.000000E00
$$ 1.000000E00
$$ 1.000000E00
$$ 9.698463E-01
$$ 8.830222E-01
$$ 7.500000E-01
$$ 5.868241E-01
$$ 4.131759E-01
$$ 2.500000E-01
$$ 1.169778E-01
$$ 3.015369E-02
$$ 0.000000E00
$$ ##END
##$RELAX= 
##$BRUKER FILE EXP=gpnam2
$$ ##TITLE= SmoothedChirp Amplitide
$$ ##JCAMP-DX= 5.00 Bruker JCAMP library
$$ ##DATA TYPE= Shape Data
$$ ##ORIGIN= Bruker BioSpin GmbH
$$ ##OWNER= <demo>
$$ ##DATE= 2004/09/06
$$ ##TIME= 16:28:02
$$ ##$SHAPE_PARAMETERS= Type: SmoothedSquare
$$ ##MINX= 0.000000E00
$$ ##MAXX= 1.000000E02
$$ ##MINY= 0.000000E00
$$ ##MAXY= 1.000000E00
$$ ##$SHAPE_EXMODE= Gradient
$$ ##$SHAPE_TOTROT= 0.000000E00
$$ ##$SHAPE_TYPE= None
$$ ##$SHAPE_USER_DEF= 
$$ ##$SHAPE_REPHFAC= 
$$ ##$SHAPE_BWFAC= 0.000000E00
$$ ##$SHAPE_BWFAC50= 
$$ ##$SHAPE_INTEGFAC= 9.000000E-01
$$ ##$SHAPE_MODE= 0
$$ ##NPOINTS= 100
$$ ##XYDATA= (X++(Y..Y))
$$ 0.000000E00
$$ 3.015369E-02
$$ 1.169778E-01
$$ 2.500000E-01
$$ 4.131759E-01
$$ 5.868241E-01
$$ 7.500000E-01
$$ 8.830222E-01
$$ 9.698463E-01
$$ 1.000000E00
$$ 1.000000E00
$$ 1.000000E00
$$ 1.000000E00
$$ 1.000000E00
$$ 1.000000E00
$$ 1.000000E00
$$ 1.000000E00
$$ 1.000000E00
$$ 1.000000E00
$$ 1.000000E00
$$ 1.000000E00
$$ 1.000000E00
$$ 1.000000E00
$$ 1.000000E00
$$ 1.000000E00
$$ 1.000000E00
$$ 1.000000E00
$$ 1.000000E00
$$ 1.000000E00
$$ 1.000000E00
$$ 1.000000E00
$$ 1.000000E00
$$ 1.000000E00
$$ 1.000000E00
$$ 1.000000E00
$$ 1.000000E00
$$ 1.000000E00
$$ 1.000000E00
$$ 1.000000E00
$$ 1.000000E00
$$ 1.000000E00
$$ 1.000000E00
$$ 1.000000E00
$$ 1.000000E00
$$ 1.000000E00
$$ 1.000000E00
$$ 1.000000E00
$$ 1.000000E00
$$ 1.000000E00
$$ 1.000000E00
$$ 1.000000E00
$$ 1.000000E00
$$ 1.000000E00
$$ 1.000000E00
$$ 1.000000E00
$$ 1.000000E00
$$ 1.000000E00
$$ 1.000000E00
$$ 1.000000E00
$$ 1.000000E00
$$ 1.000000E00
$$ 1.000000E00
$$ 1.000000E00
$$ 1.000000E00
$$ 1.000000E00
$$ 1.000000E00
$$ 1.000000E00
$$ 1.000000E00
$$ 1.000000E00
$$ 1.000000E00
$$ 1.000000E00
$$ 1.000000E00
$$ 1.000000E00
$$ 1.000000E00
$$ 1.000000E00
$$ 1.000000E00
$$ 1.000000E00
$$ 1.000000E00
$$ 1.000000E00
$$ 1.000000E00
$$ 1.000000E00
$$ 1.000000E00
$$ 1.000000E00
$$ 1.000000E00
$$ 1.000000E00
$$ 1.000000E00
$$ 1.000000E00
$$ 1.000000E00
$$ 1.000000E00
$$ 1.000000E00
$$ 1.000000E00
$$ 9.698463E-01
$$ 8.830222E-01
$$ 7.500000E-01
$$ 5.868241E-01
$$ 4.131759E-01
$$ 2.500000E-01
$$ 1.169778E-01
$$ 3.015369E-02
$$ 0.000000E00
$$ ##END
##$RELAX= 
##$BRUKER FILE EXP=scon2
$$ ##TITLE= Parameter file, TopSpin 3.6.4
$$ ##JCAMPDX= 5.0
$$ ##DATATYPE= Parameter Values
$$ ##NPOINTS= 1	$$ modification sequence number
$$ ##ORIGIN= Bruker BioSpin GmbH
$$ ##OWNER= AVIII600
$$ $$ 2024-10-18 21:53:11.827 +0200  AVIII600@AV3600
$$ $$ D:/Bruker/Topspin/data/AVIII600/nmr/20241018-AVIII600/244/scon2
$$ $$ process C:\Bruker\TopSpin3.6.4\prog\mod\go4.exe
$$ ##$BLKTR= (0..19)
$$ 3 3 3 3 3 3 3 3 3 3 3 3 3 3 3 3 3 3 3 3
$$ ##$DE1= 4.5
$$ ##$DEADC= 0.5
$$ ##$DEPA= 4.5
$$ ##$DERX= 1.5
$$ ##$FILCOR= 0.84
$$ ##$GRADCHAN= 0
$$ ##$GRADPRE= (0..1)
$$ 10 10
$$ ##$HD_BLKTR= (0..19)
$$ 1 1 1 1 1 1 1 1 1 1 1 1 1 1 1 1 1 1 1 1
$$ ##$HD_DE1= 5
$$ ##$HD_DEADC= 0
$$ ##$HD_DEPA= 2.5
$$ ##$HD_DERX= 0
$$ ##END=
##$RELAX= 
##$BRUKER FILE EXP=spnam3
$$ ##TITLE= sm. Chirp, 60kHz, 500us
$$ ##JCAMP-DX= 5.00 Bruker JCAMP library
$$ ##DATA TYPE= Shape Data
$$ ##ORIGIN= Bruker BioSpin GmbH
$$ ##OWNER= <demo>
$$ ##DATE= 2005/09/22
$$ ##TIME= 17:26:40
$$ ##$SHAPE_PARAMETERS= Type: SmoothedChirp ; Total Sweep-Width [Hz] 60000.0 ; Length of Pulse [usec] 500.0 ; % to be smoothed 20.0 ; 1=High to low field, -1=Low to high field -1.0 ; smoothing 0.0
$$ ##MINX= 0.000000E00
$$ ##MAXX= 1.000000E02
$$ ##MINY= 1.350000E-03
$$ ##MAXY= 3.580537E02
$$ ##$SHAPE_EXMODE= Adiabatic
$$ ##$SHAPE_TOTROT= 1.800000E02
$$ ##$SHAPE_TYPE= Inversion
$$ ##$SHAPE_USER_DEF= 
$$ ##$SHAPE_REPHFAC= 
$$ ##$SHAPE_BWFAC= 2.143200E01
$$ ##$SHAPE_BWFAC50= 
$$ ##$SHAPE_INTEGFAC= 1.023327E-01
$$ ##$SHAPE_MODE= 0
$$ ##NPOINTS= 1000
$$ ##XYPOINTS= (XY..XY)
$$ 0.000000E00, 2.673013E02
$$ 7.893367E-01, 2.619122E02
$$ 1.578624E00, 2.565338E02
$$ 2.367813E00, 2.511662E02
$$ 3.156855E00, 2.458093E02
$$ 3.945700E00, 2.404633E02
$$ 4.734299E00, 2.351282E02
$$ 5.522603E00, 2.298037E02
$$ 6.310563E00, 2.244901E02
$$ 7.098130E00, 2.191873E02
$$ 7.885255E00, 2.138954E02
$$ 8.671888E00, 2.086142E02
$$ 9.457981E00, 2.033437E02
$$ 1.024348E01, 1.980841E02
$$ 1.102835E01, 1.928353E02
$$ 1.181253E01, 1.875973E02
$$ 1.259597E01, 1.823701E02
$$ 1.337863E01, 1.771537E02
$$ 1.416045E01, 1.719481E02
$$ 1.494139E01, 1.667533E02
$$ 1.572140E01, 1.615694E02
$$ 1.650044E01, 1.563961E02
$$ 1.727844E01, 1.512337E02
$$ 1.805537E01, 1.460821E02
$$ 1.883117E01, 1.409413E02
$$ 1.960579E01, 1.358113E02
$$ 2.037920E01, 1.306921E02
$$ 2.115134E01, 1.255838E02
$$ 2.192216E01, 1.204861E02
$$ 2.269161E01, 1.153994E02
$$ 2.345965E01, 1.103233E02
$$ 2.422623E01, 1.052581E02
$$ 2.499130E01, 1.002037E02
$$ 2.575481E01, 9.516015E01
$$ 2.651671E01, 9.012735E01
$$ 2.727697E01, 8.510535E01
$$ 2.803552E01, 8.009415E01
$$ 2.879233E01, 7.509375E01
$$ 2.954734E01, 7.010415E01
$$ 3.030052E01, 6.512535E01
$$ 3.105180E01, 6.015735E01
$$ 3.180115E01, 5.520015E01
$$ 3.254852E01, 5.025375E01
$$ 3.329386E01, 4.531815E01
$$ 3.403713E01, 4.039335E01
$$ 3.477828E01, 3.547935E01
$$ 3.551726E01, 3.057615E01
$$ 3.625402E01, 2.568375E01
$$ 3.698853E01, 2.080215E01
$$ 3.772073E01, 1.593135E01
$$ 3.845058E01, 1.107135E01
$$ 3.917804E01, 6.222150E00
$$ 3.990306E01, 1.383750E00
$$ 4.062559E01, 3.565561E02
$$ 4.134558E01, 3.517394E02
$$ 4.206301E01, 3.469333E02
$$ 4.277781E01, 3.421382E02
$$ 4.348994E01, 3.373537E02
$$ 4.419937E01, 3.325802E02
$$ 4.490604E01, 3.278174E02
$$ 4.560992E01, 3.230654E02
$$ 4.631095E01, 3.183241E02
$$ 4.700910E01, 3.135937E02
$$ 4.770431E01, 3.088741E02
$$ 4.839656E01, 3.041653E02
$$ 4.908579E01, 2.994674E02
$$ 4.977196E01, 2.947801E02
$$ 5.045503E01, 2.901038E02
$$ 5.113496E01, 2.854381E02
$$ 5.181170E01, 2.807834E02
$$ 5.248522E01, 2.761393E02
$$ 5.315546E01, 2.715062E02
$$ 5.382239E01, 2.668837E02
$$ 5.448597E01, 2.622721E02
$$ 5.514615E01, 2.576713E02
$$ 5.580290E01, 2.530813E02
$$ 5.645617E01, 2.485021E02
$$ 5.710592E01, 2.439337E02
$$ 5.775212E01, 2.393761E02
$$ 5.839471E01, 2.348293E02
$$ 5.903367E01, 2.302934E02
$$ 5.966895E01, 2.257682E02
$$ 6.030051E01, 2.212537E02
$$ 6.092832E01, 2.167501E02
$$ 6.155232E01, 2.122573E02
$$ 6.217250E01, 2.077754E02
$$ 6.278880E01, 2.033041E02
$$ 6.340118E01, 1.988438E02
$$ 6.400962E01, 1.943941E02
$$ 6.461407E01, 1.899553E02
$$ 6.521449E01, 1.855274E02
$$ 6.581085E01, 1.811101E02
$$ 6.640311E01, 1.767037E02
$$ 6.699124E01, 1.723081E02
$$ 6.757518E01, 1.679233E02
$$ 6.815492E01, 1.635493E02
$$ 6.873041E01, 1.591862E02
$$ 6.930162E01, 1.548337E02
$$ 6.986851E01, 1.504922E02
$$ 7.043105E01, 1.461613E02
$$ 7.098920E01, 1.418414E02
$$ 7.154293E01, 1.375321E02
$$ 7.209220E01, 1.332337E02
$$ 7.263698E01, 1.289461E02
$$ 7.317723E01, 1.246693E02
$$ 7.371292E01, 1.204033E02
$$ 7.424402E01, 1.161481E02
$$ 7.477049E01, 1.119038E02
$$ 7.529231E01, 1.076701E02
$$ 7.580943E01, 1.034473E02
$$ 7.632183E01, 9.923535E01
$$ 7.682948E01, 9.503415E01
$$ 7.733233E01, 9.084375E01
$$ 7.783037E01, 8.666415E01
$$ 7.832356E01, 8.249535E01
$$ 7.881187E01, 7.833735E01
$$ 7.929527E01, 7.419015E01
$$ 7.977373E01, 7.005375E01
$$ 8.024722E01, 6.592815E01
$$ 8.071571E01, 6.181335E01
$$ 8.117917E01, 5.770935E01
$$ 8.163757E01, 5.361615E01
$$ 8.209089E01, 4.953375E01
$$ 8.253909E01, 4.546215E01
$$ 8.298215E01, 4.140135E01
$$ 8.342003E01, 3.735135E01
$$ 8.385272E01, 3.331215E01
$$ 8.428019E01, 2.928375E01
$$ 8.470240E01, 2.526615E01
$$ 8.511934E01, 2.125935E01
$$ 8.553097E01, 1.726335E01
$$ 8.593728E01, 1.327815E01
$$ 8.633823E01, 9.303750E00
$$ 8.673380E01, 5.340150E00
$$ 8.712396E01, 1.387350E00
$$ 8.750870E01, 3.574453E02
$$ 8.788799E01, 3.535142E02
$$ 8.826180E01, 3.495938E02
$$ 8.863011E01, 3.456842E02
$$ 8.899290E01, 3.417854E02
$$ 8.935014E01, 3.378973E02
$$ 8.970182E01, 3.340202E02
$$ 9.004790E01, 3.301537E02
$$ 9.038838E01, 3.262981E02
$$ 9.072323E01, 3.224533E02
$$ 9.105242E01, 3.186193E02
$$ 9.137594E01, 3.147962E02
$$ 9.169376E01, 3.109838E02
$$ 9.200588E01, 3.071822E02
$$ 9.231226E01, 3.033914E02
$$ 9.261288E01, 2.996114E02
$$ 9.290774E01, 2.958421E02
$$ 9.319681E01, 2.920838E02
$$ 9.348008E01, 2.883361E02
$$ 9.375751E01, 2.845993E02
$$ 9.402911E01, 2.808733E02
$$ 9.429485E01, 2.771582E02
$$ 9.455471E01, 2.734537E02
$$ 9.480868E01, 2.697602E02
$$ 9.505675E01, 2.660774E02
$$ 9.529889E01, 2.624053E02
$$ 9.553510E01, 2.587442E02
$$ 9.576535E01, 2.550937E02
$$ 9.598963E01, 2.514542E02
$$ 9.620794E01, 2.478253E02
$$ 9.642025E01, 2.442074E02
$$ 9.662655E01, 2.406001E02
$$ 9.682683E01, 2.370037E02
$$ 9.702108E01, 2.334181E02
$$ 9.720928E01, 2.298434E02
$$ 9.739143E01, 2.262794E02
$$ 9.756751E01, 2.227261E02
$$ 9.773751E01, 2.191837E02
$$ 9.790142E01, 2.156521E02
$$ 9.805923E01, 2.121314E02
$$ 9.821093E01, 2.086213E02
$$ 9.835651E01, 2.051222E02
$$ 9.849597E01, 2.016337E02
$$ 9.862928E01, 1.981562E02
$$ 9.875646E01, 1.946894E02
$$ 9.887747E01, 1.912333E02
$$ 9.899233E01, 1.877881E02
$$ 9.910102E01, 1.843537E02
$$ 9.920354E01, 1.809301E02
$$ 9.929987E01, 1.775173E02
$$ 9.939002E01, 1.741154E02
$$ 9.947397E01, 1.707241E02
$$ 9.955173E01, 1.673438E02
$$ 9.962328E01, 1.639742E02
$$ 9.968863E01, 1.606154E02
$$ 9.974776E01, 1.572673E02
$$ 9.980069E01, 1.539301E02
$$ 9.984739E01, 1.506038E02
$$ 9.988787E01, 1.472881E02
$$ 9.992213E01, 1.439833E02
$$ 9.995016E01, 1.406894E02
$$ 9.997196E01, 1.374062E02
$$ 9.998754E01, 1.341337E02
$$ 9.999688E01, 1.308721E02
$$ 1.000000E02, 1.276213E02
$$ 1.000000E02, 1.243813E02
$$ 1.000000E02, 1.211521E02
$$ 1.000000E02, 1.179337E02
$$ 1.000000E02, 1.147261E02
$$ 1.000000E02, 1.115293E02
$$ 1.000000E02, 1.083433E02
$$ 1.000000E02, 1.051681E02
$$ 1.000000E02, 1.020038E02
$$ 1.000000E02, 9.885015E01
$$ 1.000000E02, 9.570735E01
$$ 1.000000E02, 9.257535E01
$$ 1.000000E02, 8.945415E01
$$ 1.000000E02, 8.634375E01
$$ 1.000000E02, 8.324415E01
$$ 1.000000E02, 8.015535E01
$$ 1.000000E02, 7.707735E01
$$ 1.000000E02, 7.401015E01
$$ 1.000000E02, 7.095375E01
$$ 1.000000E02, 6.790815E01
$$ 1.000000E02, 6.487335E01
$$ 1.000000E02, 6.184935E01
$$ 1.000000E02, 5.883615E01
$$ 1.000000E02, 5.583375E01
$$ 1.000000E02, 5.284215E01
$$ 1.000000E02, 4.986135E01
$$ 1.000000E02, 4.689135E01
$$ 1.000000E02, 4.393215E01
$$ 1.000000E02, 4.098375E01
$$ 1.000000E02, 3.804615E01
$$ 1.000000E02, 3.511935E01
$$ 1.000000E02, 3.220335E01
$$ 1.000000E02, 2.929815E01
$$ 1.000000E02, 2.640375E01
$$ 1.000000E02, 2.352015E01
$$ 1.000000E02, 2.064735E01
$$ 1.000000E02, 1.778535E01
$$ 1.000000E02, 1.493415E01
$$ 1.000000E02, 1.209375E01
$$ 1.000000E02, 9.264150E00
$$ 1.000000E02, 6.445350E00
$$ 1.000000E02, 3.637350E00
$$ 1.000000E02, 8.401500E-01
$$ 1.000000E02, 3.580537E02
$$ 1.000000E02, 3.552782E02
$$ 1.000000E02, 3.525133E02
$$ 1.000000E02, 3.497594E02
$$ 1.000000E02, 3.470161E02
$$ 1.000000E02, 3.442838E02
$$ 1.000000E02, 3.415622E02
$$ 1.000000E02, 3.388513E02
$$ 1.000000E02, 3.361514E02
$$ 1.000000E02, 3.334621E02
$$ 1.000000E02, 3.307838E02
$$ 1.000000E02, 3.281161E02
$$ 1.000000E02, 3.254594E02
$$ 1.000000E02, 3.228133E02
$$ 1.000000E02, 3.201781E02
$$ 1.000000E02, 3.175538E02
$$ 1.000000E02, 3.149401E02
$$ 1.000000E02, 3.123374E02
$$ 1.000000E02, 3.097454E02
$$ 1.000000E02, 3.071642E02
$$ 1.000000E02, 3.045938E02
$$ 1.000000E02, 3.020342E02
$$ 1.000000E02, 2.994853E02
$$ 1.000000E02, 2.969473E02
$$ 1.000000E02, 2.944201E02
$$ 1.000000E02, 2.919038E02
$$ 1.000000E02, 2.893982E02
$$ 1.000000E02, 2.869034E02
$$ 1.000000E02, 2.844194E02
$$ 1.000000E02, 2.819462E02
$$ 1.000000E02, 2.794838E02
$$ 1.000000E02, 2.770322E02
$$ 1.000000E02, 2.745913E02
$$ 1.000000E02, 2.721613E02
$$ 1.000000E02, 2.697421E02
$$ 1.000000E02, 2.673337E02
$$ 1.000000E02, 2.649362E02
$$ 1.000000E02, 2.625494E02
$$ 1.000000E02, 2.601733E02
$$ 1.000000E02, 2.578082E02
$$ 1.000000E02, 2.554538E02
$$ 1.000000E02, 2.531101E02
$$ 1.000000E02, 2.507773E02
$$ 1.000000E02, 2.484553E02
$$ 1.000000E02, 2.461441E02
$$ 1.000000E02, 2.438437E02
$$ 1.000000E02, 2.415542E02
$$ 1.000000E02, 2.392753E02
$$ 1.000000E02, 2.370073E02
$$ 1.000000E02, 2.347502E02
$$ 1.000000E02, 2.325038E02
$$ 1.000000E02, 2.302681E02
$$ 1.000000E02, 2.280433E02
$$ 1.000000E02, 2.258293E02
$$ 1.000000E02, 2.236261E02
$$ 1.000000E02, 2.214338E02
$$ 1.000000E02, 2.192521E02
$$ 1.000000E02, 2.170814E02
$$ 1.000000E02, 2.149214E02
$$ 1.000000E02, 2.127722E02
$$ 1.000000E02, 2.106338E02
$$ 1.000000E02, 2.085061E02
$$ 1.000000E02, 2.063893E02
$$ 1.000000E02, 2.042833E02
$$ 1.000000E02, 2.021881E02
$$ 1.000000E02, 2.001038E02
$$ 1.000000E02, 1.980302E02
$$ 1.000000E02, 1.959673E02
$$ 1.000000E02, 1.939154E02
$$ 1.000000E02, 1.918742E02
$$ 1.000000E02, 1.898438E02
$$ 1.000000E02, 1.878241E02
$$ 1.000000E02, 1.858153E02
$$ 1.000000E02, 1.838173E02
$$ 1.000000E02, 1.818301E02
$$ 1.000000E02, 1.798538E02
$$ 1.000000E02, 1.778882E02
$$ 1.000000E02, 1.759334E02
$$ 1.000000E02, 1.739894E02
$$ 1.000000E02, 1.720562E02
$$ 1.000000E02, 1.701338E02
$$ 1.000000E02, 1.682221E02
$$ 1.000000E02, 1.663213E02
$$ 1.000000E02, 1.644313E02
$$ 1.000000E02, 1.625521E02
$$ 1.000000E02, 1.606838E02
$$ 1.000000E02, 1.588261E02
$$ 1.000000E02, 1.569794E02
$$ 1.000000E02, 1.551434E02
$$ 1.000000E02, 1.533182E02
$$ 1.000000E02, 1.515038E02
$$ 1.000000E02, 1.497001E02
$$ 1.000000E02, 1.479073E02
$$ 1.000000E02, 1.461253E02
$$ 1.000000E02, 1.443542E02
$$ 1.000000E02, 1.425938E02
$$ 1.000000E02, 1.408441E02
$$ 1.000000E02, 1.391054E02
$$ 1.000000E02, 1.373774E02
$$ 1.000000E02, 1.356602E02
$$ 1.000000E02, 1.339537E02
$$ 1.000000E02, 1.322581E02
$$ 1.000000E02, 1.305734E02
$$ 1.000000E02, 1.288993E02
$$ 1.000000E02, 1.272362E02
$$ 1.000000E02, 1.255838E02
$$ 1.000000E02, 1.239422E02
$$ 1.000000E02, 1.223114E02
$$ 1.000000E02, 1.206914E02
$$ 1.000000E02, 1.190822E02
$$ 1.000000E02, 1.174837E02
$$ 1.000000E02, 1.158961E02
$$ 1.000000E02, 1.143193E02
$$ 1.000000E02, 1.127534E02
$$ 1.000000E02, 1.111981E02
$$ 1.000000E02, 1.096538E02
$$ 1.000000E02, 1.081202E02
$$ 1.000000E02, 1.065974E02
$$ 1.000000E02, 1.050854E02
$$ 1.000000E02, 1.035842E02
$$ 1.000000E02, 1.020937E02
$$ 1.000000E02, 1.006141E02
$$ 1.000000E02, 9.914535E01
$$ 1.000000E02, 9.768735E01
$$ 1.000000E02, 9.624015E01
$$ 1.000000E02, 9.480375E01
$$ 1.000000E02, 9.337815E01
$$ 1.000000E02, 9.196335E01
$$ 1.000000E02, 9.055935E01
$$ 1.000000E02, 8.916615E01
$$ 1.000000E02, 8.778375E01
$$ 1.000000E02, 8.641215E01
$$ 1.000000E02, 8.505135E01
$$ 1.000000E02, 8.370135E01
$$ 1.000000E02, 8.236215E01
$$ 1.000000E02, 8.103375E01
$$ 1.000000E02, 7.971615E01
$$ 1.000000E02, 7.840935E01
$$ 1.000000E02, 7.711335E01
$$ 1.000000E02, 7.582815E01
$$ 1.000000E02, 7.455375E01
$$ 1.000000E02, 7.329015E01
$$ 1.000000E02, 7.203735E01
$$ 1.000000E02, 7.079535E01
$$ 1.000000E02, 6.956415E01
$$ 1.000000E02, 6.834375E01
$$ 1.000000E02, 6.713415E01
$$ 1.000000E02, 6.593535E01
$$ 1.000000E02, 6.474735E01
$$ 1.000000E02, 6.357015E01
$$ 1.000000E02, 6.240375E01
$$ 1.000000E02, 6.124815E01
$$ 1.000000E02, 6.010335E01
$$ 1.000000E02, 5.896935E01
$$ 1.000000E02, 5.784615E01
$$ 1.000000E02, 5.673375E01
$$ 1.000000E02, 5.563215E01
$$ 1.000000E02, 5.454135E01
$$ 1.000000E02, 5.346135E01
$$ 1.000000E02, 5.239215E01
$$ 1.000000E02, 5.133375E01
$$ 1.000000E02, 5.028615E01
$$ 1.000000E02, 4.924935E01
$$ 1.000000E02, 4.822335E01
$$ 1.000000E02, 4.720815E01
$$ 1.000000E02, 4.620375E01
$$ 1.000000E02, 4.521015E01
$$ 1.000000E02, 4.422735E01
$$ 1.000000E02, 4.325535E01
$$ 1.000000E02, 4.229415E01
$$ 1.000000E02, 4.134375E01
$$ 1.000000E02, 4.040415E01
$$ 1.000000E02, 3.947535E01
$$ 1.000000E02, 3.855735E01
$$ 1.000000E02, 3.765015E01
$$ 1.000000E02, 3.675375E01
$$ 1.000000E02, 3.586815E01
$$ 1.000000E02, 3.499335E01
$$ 1.000000E02, 3.412935E01
$$ 1.000000E02, 3.327615E01
$$ 1.000000E02, 3.243375E01
$$ 1.000000E02, 3.160215E01
$$ 1.000000E02, 3.078135E01
$$ 1.000000E02, 2.997135E01
$$ 1.000000E02, 2.917215E01
$$ 1.000000E02, 2.838375E01
$$ 1.000000E02, 2.760615E01
$$ 1.000000E02, 2.683935E01
$$ 1.000000E02, 2.608335E01
$$ 1.000000E02, 2.533815E01
$$ 1.000000E02, 2.460375E01
$$ 1.000000E02, 2.388015E01
$$ 1.000000E02, 2.316735E01
$$ 1.000000E02, 2.246535E01
$$ 1.000000E02, 2.177415E01
$$ 1.000000E02, 2.109375E01
$$ 1.000000E02, 2.042415E01
$$ 1.000000E02, 1.976535E01
$$ 1.000000E02, 1.911735E01
$$ 1.000000E02, 1.848015E01
$$ 1.000000E02, 1.785375E01
$$ 1.000000E02, 1.723815E01
$$ 1.000000E02, 1.663335E01
$$ 1.000000E02, 1.603935E01
$$ 1.000000E02, 1.545615E01
$$ 1.000000E02, 1.488375E01
$$ 1.000000E02, 1.432215E01
$$ 1.000000E02, 1.377135E01
$$ 1.000000E02, 1.323135E01
$$ 1.000000E02, 1.270215E01
$$ 1.000000E02, 1.218375E01
$$ 1.000000E02, 1.167615E01
$$ 1.000000E02, 1.117935E01
$$ 1.000000E02, 1.069335E01
$$ 1.000000E02, 1.021815E01
$$ 1.000000E02, 9.753750E00
$$ 1.000000E02, 9.300150E00
$$ 1.000000E02, 8.857350E00
$$ 1.000000E02, 8.425350E00
$$ 1.000000E02, 8.004150E00
$$ 1.000000E02, 7.593750E00
$$ 1.000000E02, 7.194150E00
$$ 1.000000E02, 6.805350E00
$$ 1.000000E02, 6.427350E00
$$ 1.000000E02, 6.060150E00
$$ 1.000000E02, 5.703750E00
$$ 1.000000E02, 5.358150E00
$$ 1.000000E02, 5.023350E00
$$ 1.000000E02, 4.699350E00
$$ 1.000000E02, 4.386150E00
$$ 1.000000E02, 4.083750E00
$$ 1.000000E02, 3.792150E00
$$ 1.000000E02, 3.511350E00
$$ 1.000000E02, 3.241350E00
$$ 1.000000E02, 2.982150E00
$$ 1.000000E02, 2.733750E00
$$ 1.000000E02, 2.496150E00
$$ 1.000000E02, 2.269350E00
$$ 1.000000E02, 2.053350E00
$$ 1.000000E02, 1.848150E00
$$ 1.000000E02, 1.653750E00
$$ 1.000000E02, 1.470150E00
$$ 1.000000E02, 1.297350E00
$$ 1.000000E02, 1.135350E00
$$ 1.000000E02, 9.841500E-01
$$ 1.000000E02, 8.437500E-01
$$ 1.000000E02, 7.141500E-01
$$ 1.000000E02, 5.953500E-01
$$ 1.000000E02, 4.873500E-01
$$ 1.000000E02, 3.901500E-01
$$ 1.000000E02, 3.037500E-01
$$ 1.000000E02, 2.281500E-01
$$ 1.000000E02, 1.633500E-01
$$ 1.000000E02, 1.093500E-01
$$ 1.000000E02, 6.615000E-02
$$ 1.000000E02, 3.375000E-02
$$ 1.000000E02, 1.215000E-02
$$ 1.000000E02, 1.350000E-03
$$ 1.000000E02, 1.350000E-03
$$ 1.000000E02, 1.215000E-02
$$ 1.000000E02, 3.375000E-02
$$ 1.000000E02, 6.615000E-02
$$ 1.000000E02, 1.093500E-01
$$ 1.000000E02, 1.633500E-01
$$ 1.000000E02, 2.281500E-01
$$ 1.000000E02, 3.037500E-01
$$ 1.000000E02, 3.901500E-01
$$ 1.000000E02, 4.873500E-01
$$ 1.000000E02, 5.953500E-01
$$ 1.000000E02, 7.141500E-01
$$ 1.000000E02, 8.437500E-01
$$ 1.000000E02, 9.841500E-01
$$ 1.000000E02, 1.135350E00
$$ 1.000000E02, 1.297350E00
$$ 1.000000E02, 1.470150E00
$$ 1.000000E02, 1.653750E00
$$ 1.000000E02, 1.848150E00
$$ 1.000000E02, 2.053350E00
$$ 1.000000E02, 2.269350E00
$$ 1.000000E02, 2.496150E00
$$ 1.000000E02, 2.733750E00
$$ 1.000000E02, 2.982150E00
$$ 1.000000E02, 3.241350E00
$$ 1.000000E02, 3.511350E00
$$ 1.000000E02, 3.792150E00
$$ 1.000000E02, 4.083750E00
$$ 1.000000E02, 4.386150E00
$$ 1.000000E02, 4.699350E00
$$ 1.000000E02, 5.023350E00
$$ 1.000000E02, 5.358150E00
$$ 1.000000E02, 5.703750E00
$$ 1.000000E02, 6.060150E00
$$ 1.000000E02, 6.427350E00
$$ 1.000000E02, 6.805350E00
$$ 1.000000E02, 7.194150E00
$$ 1.000000E02, 7.593750E00
$$ 1.000000E02, 8.004150E00
$$ 1.000000E02, 8.425350E00
$$ 1.000000E02, 8.857350E00
$$ 1.000000E02, 9.300150E00
$$ 1.000000E02, 9.753750E00
$$ 1.000000E02, 1.021815E01
$$ 1.000000E02, 1.069335E01
$$ 1.000000E02, 1.117935E01
$$ 1.000000E02, 1.167615E01
$$ 1.000000E02, 1.218375E01
$$ 1.000000E02, 1.270215E01
$$ 1.000000E02, 1.323135E01
$$ 1.000000E02, 1.377135E01
$$ 1.000000E02, 1.432215E01
$$ 1.000000E02, 1.488375E01
$$ 1.000000E02, 1.545615E01
$$ 1.000000E02, 1.603935E01
$$ 1.000000E02, 1.663335E01
$$ 1.000000E02, 1.723815E01
$$ 1.000000E02, 1.785375E01
$$ 1.000000E02, 1.848015E01
$$ 1.000000E02, 1.911735E01
$$ 1.000000E02, 1.976535E01
$$ 1.000000E02, 2.042415E01
$$ 1.000000E02, 2.109375E01
$$ 1.000000E02, 2.177415E01
$$ 1.000000E02, 2.246535E01
$$ 1.000000E02, 2.316735E01
$$ 1.000000E02, 2.388015E01
$$ 1.000000E02, 2.460375E01
$$ 1.000000E02, 2.533815E01
$$ 1.000000E02, 2.608335E01
$$ 1.000000E02, 2.683935E01
$$ 1.000000E02, 2.760615E01
$$ 1.000000E02, 2.838375E01
$$ 1.000000E02, 2.917215E01
$$ 1.000000E02, 2.997135E01
$$ 1.000000E02, 3.078135E01
$$ 1.000000E02, 3.160215E01
$$ 1.000000E02, 3.243375E01
$$ 1.000000E02, 3.327615E01
$$ 1.000000E02, 3.412935E01
$$ 1.000000E02, 3.499335E01
$$ 1.000000E02, 3.586815E01
$$ 1.000000E02, 3.675375E01
$$ 1.000000E02, 3.765015E01
$$ 1.000000E02, 3.855735E01
$$ 1.000000E02, 3.947535E01
$$ 1.000000E02, 4.040415E01
$$ 1.000000E02, 4.134375E01
$$ 1.000000E02, 4.229415E01
$$ 1.000000E02, 4.325535E01
$$ 1.000000E02, 4.422735E01
$$ 1.000000E02, 4.521015E01
$$ 1.000000E02, 4.620375E01
$$ 1.000000E02, 4.720815E01
$$ 1.000000E02, 4.822335E01
$$ 1.000000E02, 4.924935E01
$$ 1.000000E02, 5.028615E01
$$ 1.000000E02, 5.133375E01
$$ 1.000000E02, 5.239215E01
$$ 1.000000E02, 5.346135E01
$$ 1.000000E02, 5.454135E01
$$ 1.000000E02, 5.563215E01
$$ 1.000000E02, 5.673375E01
$$ 1.000000E02, 5.784615E01
$$ 1.000000E02, 5.896935E01
$$ 1.000000E02, 6.010335E01
$$ 1.000000E02, 6.124815E01
$$ 1.000000E02, 6.240375E01
$$ 1.000000E02, 6.357015E01
$$ 1.000000E02, 6.474735E01
$$ 1.000000E02, 6.593535E01
$$ 1.000000E02, 6.713415E01
$$ 1.000000E02, 6.834375E01
$$ 1.000000E02, 6.956415E01
$$ 1.000000E02, 7.079535E01
$$ 1.000000E02, 7.203735E01
$$ 1.000000E02, 7.329015E01
$$ 1.000000E02, 7.455375E01
$$ 1.000000E02, 7.582815E01
$$ 1.000000E02, 7.711335E01
$$ 1.000000E02, 7.840935E01
$$ 1.000000E02, 7.971615E01
$$ 1.000000E02, 8.103375E01
$$ 1.000000E02, 8.236215E01
$$ 1.000000E02, 8.370135E01
$$ 1.000000E02, 8.505135E01
$$ 1.000000E02, 8.641215E01
$$ 1.000000E02, 8.778375E01
$$ 1.000000E02, 8.916615E01
$$ 1.000000E02, 9.055935E01
$$ 1.000000E02, 9.196335E01
$$ 1.000000E02, 9.337815E01
$$ 1.000000E02, 9.480375E01
$$ 1.000000E02, 9.624015E01
$$ 1.000000E02, 9.768735E01
$$ 1.000000E02, 9.914535E01
$$ 1.000000E02, 1.006141E02
$$ 1.000000E02, 1.020937E02
$$ 1.000000E02, 1.035842E02
$$ 1.000000E02, 1.050854E02
$$ 1.000000E02, 1.065974E02
$$ 1.000000E02, 1.081202E02
$$ 1.000000E02, 1.096538E02
$$ 1.000000E02, 1.111981E02
$$ 1.000000E02, 1.127534E02
$$ 1.000000E02, 1.143193E02
$$ 1.000000E02, 1.158961E02
$$ 1.000000E02, 1.174837E02
$$ 1.000000E02, 1.190822E02
$$ 1.000000E02, 1.206914E02
$$ 1.000000E02, 1.223114E02
$$ 1.000000E02, 1.239422E02
$$ 1.000000E02, 1.255838E02
$$ 1.000000E02, 1.272362E02
$$ 1.000000E02, 1.288993E02
$$ 1.000000E02, 1.305734E02
$$ 1.000000E02, 1.322581E02
$$ 1.000000E02, 1.339537E02
$$ 1.000000E02, 1.356602E02
$$ 1.000000E02, 1.373774E02
$$ 1.000000E02, 1.391054E02
$$ 1.000000E02, 1.408441E02
$$ 1.000000E02, 1.425938E02
$$ 1.000000E02, 1.443542E02
$$ 1.000000E02, 1.461253E02
$$ 1.000000E02, 1.479073E02
$$ 1.000000E02, 1.497001E02
$$ 1.000000E02, 1.515038E02
$$ 1.000000E02, 1.533182E02
$$ 1.000000E02, 1.551434E02
$$ 1.000000E02, 1.569794E02
$$ 1.000000E02, 1.588261E02
$$ 1.000000E02, 1.606838E02
$$ 1.000000E02, 1.625521E02
$$ 1.000000E02, 1.644313E02
$$ 1.000000E02, 1.663213E02
$$ 1.000000E02, 1.682221E02
$$ 1.000000E02, 1.701338E02
$$ 1.000000E02, 1.720562E02
$$ 1.000000E02, 1.739894E02
$$ 1.000000E02, 1.759334E02
$$ 1.000000E02, 1.778882E02
$$ 1.000000E02, 1.798538E02
$$ 1.000000E02, 1.818301E02
$$ 1.000000E02, 1.838173E02
$$ 1.000000E02, 1.858153E02
$$ 1.000000E02, 1.878241E02
$$ 1.000000E02, 1.898438E02
$$ 1.000000E02, 1.918742E02
$$ 1.000000E02, 1.939154E02
$$ 1.000000E02, 1.959673E02
$$ 1.000000E02, 1.980302E02
$$ 1.000000E02, 2.001038E02
$$ 1.000000E02, 2.021881E02
$$ 1.000000E02, 2.042833E02
$$ 1.000000E02, 2.063893E02
$$ 1.000000E02, 2.085061E02
$$ 1.000000E02, 2.106338E02
$$ 1.000000E02, 2.127722E02
$$ 1.000000E02, 2.149214E02
$$ 1.000000E02, 2.170814E02
$$ 1.000000E02, 2.192521E02
$$ 1.000000E02, 2.214338E02
$$ 1.000000E02, 2.236261E02
$$ 1.000000E02, 2.258293E02
$$ 1.000000E02, 2.280433E02
$$ 1.000000E02, 2.302681E02
$$ 1.000000E02, 2.325038E02
$$ 1.000000E02, 2.347502E02
$$ 1.000000E02, 2.370073E02
$$ 1.000000E02, 2.392753E02
$$ 1.000000E02, 2.415542E02
$$ 1.000000E02, 2.438437E02
$$ 1.000000E02, 2.461441E02
$$ 1.000000E02, 2.484553E02
$$ 1.000000E02, 2.507773E02
$$ 1.000000E02, 2.531101E02
$$ 1.000000E02, 2.554538E02
$$ 1.000000E02, 2.578082E02
$$ 1.000000E02, 2.601733E02
$$ 1.000000E02, 2.625494E02
$$ 1.000000E02, 2.649362E02
$$ 1.000000E02, 2.673337E02
$$ 1.000000E02, 2.697421E02
$$ 1.000000E02, 2.721613E02
$$ 1.000000E02, 2.745913E02
$$ 1.000000E02, 2.770322E02
$$ 1.000000E02, 2.794838E02
$$ 1.000000E02, 2.819462E02
$$ 1.000000E02, 2.844194E02
$$ 1.000000E02, 2.869034E02
$$ 1.000000E02, 2.893982E02
$$ 1.000000E02, 2.919038E02
$$ 1.000000E02, 2.944201E02
$$ 1.000000E02, 2.969473E02
$$ 1.000000E02, 2.994853E02
$$ 1.000000E02, 3.020342E02
$$ 1.000000E02, 3.045938E02
$$ 1.000000E02, 3.071642E02
$$ 1.000000E02, 3.097454E02
$$ 1.000000E02, 3.123374E02
$$ 1.000000E02, 3.149401E02
$$ 1.000000E02, 3.175538E02
$$ 1.000000E02, 3.201781E02
$$ 1.000000E02, 3.228133E02
$$ 1.000000E02, 3.254594E02
$$ 1.000000E02, 3.281161E02
$$ 1.000000E02, 3.307838E02
$$ 1.000000E02, 3.334621E02
$$ 1.000000E02, 3.361514E02
$$ 1.000000E02, 3.388513E02
$$ 1.000000E02, 3.415622E02
$$ 1.000000E02, 3.442838E02
$$ 1.000000E02, 3.470161E02
$$ 1.000000E02, 3.497594E02
$$ 1.000000E02, 3.525133E02
$$ 1.000000E02, 3.552782E02
$$ 1.000000E02, 3.580537E02
$$ 1.000000E02, 8.401500E-01
$$ 1.000000E02, 3.637350E00
$$ 1.000000E02, 6.445350E00
$$ 1.000000E02, 9.264150E00
$$ 1.000000E02, 1.209375E01
$$ 1.000000E02, 1.493415E01
$$ 1.000000E02, 1.778535E01
$$ 1.000000E02, 2.064735E01
$$ 1.000000E02, 2.352015E01
$$ 1.000000E02, 2.640375E01
$$ 1.000000E02, 2.929815E01
$$ 1.000000E02, 3.220335E01
$$ 1.000000E02, 3.511935E01
$$ 1.000000E02, 3.804615E01
$$ 1.000000E02, 4.098375E01
$$ 1.000000E02, 4.393215E01
$$ 1.000000E02, 4.689135E01
$$ 1.000000E02, 4.986135E01
$$ 1.000000E02, 5.284215E01
$$ 1.000000E02, 5.583375E01
$$ 1.000000E02, 5.883615E01
$$ 1.000000E02, 6.184935E01
$$ 1.000000E02, 6.487335E01
$$ 1.000000E02, 6.790815E01
$$ 1.000000E02, 7.095375E01
$$ 1.000000E02, 7.401015E01
$$ 1.000000E02, 7.707735E01
$$ 1.000000E02, 8.015535E01
$$ 1.000000E02, 8.324415E01
$$ 1.000000E02, 8.634375E01
$$ 1.000000E02, 8.945415E01
$$ 1.000000E02, 9.257535E01
$$ 1.000000E02, 9.570735E01
$$ 1.000000E02, 9.885015E01
$$ 1.000000E02, 1.020038E02
$$ 1.000000E02, 1.051681E02
$$ 1.000000E02, 1.083433E02
$$ 1.000000E02, 1.115293E02
$$ 1.000000E02, 1.147261E02
$$ 1.000000E02, 1.179337E02
$$ 1.000000E02, 1.211521E02
$$ 1.000000E02, 1.243813E02
$$ 1.000000E02, 1.276213E02
$$ 9.999688E01, 1.308721E02
$$ 9.998754E01, 1.341337E02
$$ 9.997196E01, 1.374062E02
$$ 9.995016E01, 1.406894E02
$$ 9.992213E01, 1.439833E02
$$ 9.988787E01, 1.472881E02
$$ 9.984739E01, 1.506038E02
$$ 9.980069E01, 1.539301E02
$$ 9.974776E01, 1.572673E02
$$ 9.968863E01, 1.606154E02
$$ 9.962328E01, 1.639742E02
$$ 9.955173E01, 1.673438E02
$$ 9.947397E01, 1.707241E02
$$ 9.939002E01, 1.741154E02
$$ 9.929987E01, 1.775173E02
$$ 9.920354E01, 1.809301E02
$$ 9.910102E01, 1.843537E02
$$ 9.899233E01, 1.877881E02
$$ 9.887747E01, 1.912333E02
$$ 9.875646E01, 1.946894E02
$$ 9.862928E01, 1.981562E02
$$ 9.849597E01, 2.016337E02
$$ 9.835651E01, 2.051222E02
$$ 9.821093E01, 2.086213E02
$$ 9.805923E01, 2.121314E02
$$ 9.790142E01, 2.156521E02
$$ 9.773751E01, 2.191837E02
$$ 9.756751E01, 2.227261E02
$$ 9.739143E01, 2.262794E02
$$ 9.720928E01, 2.298434E02
$$ 9.702108E01, 2.334181E02
$$ 9.682683E01, 2.370037E02
$$ 9.662655E01, 2.406001E02
$$ 9.642025E01, 2.442074E02
$$ 9.620794E01, 2.478253E02
$$ 9.598963E01, 2.514542E02
$$ 9.576535E01, 2.550937E02
$$ 9.553510E01, 2.587442E02
$$ 9.529889E01, 2.624053E02
$$ 9.505675E01, 2.660774E02
$$ 9.480868E01, 2.697602E02
$$ 9.455471E01, 2.734537E02
$$ 9.429485E01, 2.771582E02
$$ 9.402911E01, 2.808733E02
$$ 9.375751E01, 2.845993E02
$$ 9.348008E01, 2.883361E02
$$ 9.319681E01, 2.920838E02
$$ 9.290774E01, 2.958421E02
$$ 9.261288E01, 2.996114E02
$$ 9.231226E01, 3.033914E02
$$ 9.200588E01, 3.071822E02
$$ 9.169376E01, 3.109838E02
$$ 9.137594E01, 3.147962E02
$$ 9.105242E01, 3.186193E02
$$ 9.072323E01, 3.224533E02
$$ 9.038838E01, 3.262981E02
$$ 9.004790E01, 3.301537E02
$$ 8.970182E01, 3.340202E02
$$ 8.935014E01, 3.378973E02
$$ 8.899290E01, 3.417854E02
$$ 8.863011E01, 3.456842E02
$$ 8.826180E01, 3.495938E02
$$ 8.788799E01, 3.535142E02
$$ 8.750870E01, 3.574453E02
$$ 8.712396E01, 1.387350E00
$$ 8.673380E01, 5.340150E00
$$ 8.633823E01, 9.303750E00
$$ 8.593728E01, 1.327815E01
$$ 8.553097E01, 1.726335E01
$$ 8.511934E01, 2.125935E01
$$ 8.470240E01, 2.526615E01
$$ 8.428019E01, 2.928375E01
$$ 8.385272E01, 3.331215E01
$$ 8.342003E01, 3.735135E01
$$ 8.298215E01, 4.140135E01
$$ 8.253909E01, 4.546215E01
$$ 8.209089E01, 4.953375E01
$$ 8.163757E01, 5.361615E01
$$ 8.117917E01, 5.770935E01
$$ 8.071571E01, 6.181335E01
$$ 8.024722E01, 6.592815E01
$$ 7.977373E01, 7.005375E01
$$ 7.929527E01, 7.419015E01
$$ 7.881187E01, 7.833735E01
$$ 7.832356E01, 8.249535E01
$$ 7.783037E01, 8.666415E01
$$ 7.733233E01, 9.084375E01
$$ 7.682948E01, 9.503415E01
$$ 7.632183E01, 9.923535E01
$$ 7.580943E01, 1.034473E02
$$ 7.529231E01, 1.076701E02
$$ 7.477049E01, 1.119038E02
$$ 7.424402E01, 1.161481E02
$$ 7.371292E01, 1.204033E02
$$ 7.317723E01, 1.246693E02
$$ 7.263698E01, 1.289461E02
$$ 7.209220E01, 1.332337E02
$$ 7.154293E01, 1.375321E02
$$ 7.098920E01, 1.418414E02
$$ 7.043105E01, 1.461613E02
$$ 6.986851E01, 1.504922E02
$$ 6.930162E01, 1.548337E02
$$ 6.873041E01, 1.591862E02
$$ 6.815492E01, 1.635493E02
$$ 6.757518E01, 1.679233E02
$$ 6.699124E01, 1.723081E02
$$ 6.640311E01, 1.767037E02
$$ 6.581085E01, 1.811101E02
$$ 6.521449E01, 1.855274E02
$$ 6.461407E01, 1.899553E02
$$ 6.400962E01, 1.943941E02
$$ 6.340118E01, 1.988438E02
$$ 6.278880E01, 2.033041E02
$$ 6.217250E01, 2.077754E02
$$ 6.155232E01, 2.122573E02
$$ 6.092832E01, 2.167501E02
$$ 6.030051E01, 2.212537E02
$$ 5.966895E01, 2.257682E02
$$ 5.903367E01, 2.302934E02
$$ 5.839471E01, 2.348293E02
$$ 5.775212E01, 2.393761E02
$$ 5.710592E01, 2.439337E02
$$ 5.645617E01, 2.485021E02
$$ 5.580290E01, 2.530813E02
$$ 5.514615E01, 2.576713E02
$$ 5.448597E01, 2.622721E02
$$ 5.382239E01, 2.668837E02
$$ 5.315546E01, 2.715062E02
$$ 5.248522E01, 2.761393E02
$$ 5.181170E01, 2.807834E02
$$ 5.113496E01, 2.854381E02
$$ 5.045503E01, 2.901038E02
$$ 4.977196E01, 2.947801E02
$$ 4.908579E01, 2.994674E02
$$ 4.839656E01, 3.041653E02
$$ 4.770431E01, 3.088741E02
$$ 4.700910E01, 3.135937E02
$$ 4.631095E01, 3.183241E02
$$ 4.560992E01, 3.230654E02
$$ 4.490604E01, 3.278174E02
$$ 4.419937E01, 3.325802E02
$$ 4.348994E01, 3.373537E02
$$ 4.277781E01, 3.421382E02
$$ 4.206301E01, 3.469333E02
$$ 4.134558E01, 3.517394E02
$$ 4.062559E01, 3.565561E02
$$ 3.990306E01, 1.383750E00
$$ 3.917804E01, 6.222150E00
$$ 3.845058E01, 1.107135E01
$$ 3.772073E01, 1.593135E01
$$ 3.698853E01, 2.080215E01
$$ 3.625402E01, 2.568375E01
$$ 3.551726E01, 3.057615E01
$$ 3.477828E01, 3.547935E01
$$ 3.403713E01, 4.039335E01
$$ 3.329386E01, 4.531815E01
$$ 3.254852E01, 5.025375E01
$$ 3.180115E01, 5.520015E01
$$ 3.105180E01, 6.015735E01
$$ 3.030052E01, 6.512535E01
$$ 2.954734E01, 7.010415E01
$$ 2.879233E01, 7.509375E01
$$ 2.803552E01, 8.009415E01
$$ 2.727697E01, 8.510535E01
$$ 2.651671E01, 9.012735E01
$$ 2.575481E01, 9.516015E01
$$ 2.499130E01, 1.002037E02
$$ 2.422623E01, 1.052581E02
$$ 2.345965E01, 1.103233E02
$$ 2.269161E01, 1.153994E02
$$ 2.192216E01, 1.204861E02
$$ 2.115134E01, 1.255838E02
$$ 2.037920E01, 1.306921E02
$$ 1.960579E01, 1.358113E02
$$ 1.883117E01, 1.409413E02
$$ 1.805537E01, 1.460821E02
$$ 1.727844E01, 1.512337E02
$$ 1.650044E01, 1.563961E02
$$ 1.572140E01, 1.615694E02
$$ 1.494139E01, 1.667533E02
$$ 1.416045E01, 1.719481E02
$$ 1.337863E01, 1.771537E02
$$ 1.259597E01, 1.823701E02
$$ 1.181253E01, 1.875973E02
$$ 1.102835E01, 1.928353E02
$$ 1.024348E01, 1.980841E02
$$ 9.457981E00, 2.033437E02
$$ 8.671888E00, 2.086142E02
$$ 7.885255E00, 2.138954E02
$$ 7.098130E00, 2.191873E02
$$ 6.310563E00, 2.244901E02
$$ 5.522603E00, 2.298037E02
$$ 4.734299E00, 2.351282E02
$$ 3.945700E00, 2.404633E02
$$ 3.156855E00, 2.458093E02
$$ 2.367813E00, 2.511662E02
$$ 1.578624E00, 2.565338E02
$$ 7.893367E-01, 2.619122E02
$$ 0.000000E00, 2.673013E02
$$ ##END
##$RELAX= 
##$BRUKER FILE EXP=spnam14
$$ ##TITLE= sm. Chirp: 42kHz, 1.5ms
$$ ##JCAMP-DX= 5.00 Bruker JCAMP library
$$ ##DATA TYPE= Shape Data
$$ ##ORIGIN= Bruker BioSpin GmbH
$$ ##OWNER= <demo>
$$ ##DATE= 2010/01/21
$$ ##TIME= 18:37:35
$$ ##$SHAPE_PARAMETERS= Type: SmoothedChirp ; Total Sweep-Width [Hz] 42000.0 ; Length of Pulse [usec] 1500.0 ; % to be smoothed 20.0 ; 1=High to low field, -1=Low to high field -1.0 ; smoothing 0.0
$$ ##MINX= 0.000000E00
$$ ##MAXX= 1.000000E02
$$ ##MINY= 7.087500E-04
$$ ##MAXY= 3.592055E02
$$ ##$SHAPE_EXMODE= Adiabatic
$$ ##$SHAPE_TOTROT= 1.800000E02
$$ ##$SHAPE_TYPE= Inversion
$$ ##$SHAPE_USER_DEF= 
$$ ##$SHAPE_REPHFAC= 
$$ ##$SHAPE_BWFAC= 4.974000E01
$$ ##$SHAPE_BWFAC50= 
$$ ##$SHAPE_INTEGFAC= 9.116510E-02
$$ ##$SHAPE_MODE= 0
$$ ##NPOINTS= 2000
$$ ##XYPOINTS= (XY..XY)
$$ 0.000000E00, 3.121657E02
$$ 3.936823E-01, 3.065014E02
$$ 7.873584E-01, 3.008427E02
$$ 1.181022E00, 2.951897E02
$$ 1.574668E00, 2.895424E02
$$ 1.968289E00, 2.839008E02
$$ 2.361880E00, 2.782648E02
$$ 2.755434E00, 2.726345E02
$$ 3.148946E00, 2.670098E02
$$ 3.542408E00, 2.613909E02
$$ 3.935816E00, 2.557776E02
$$ 4.329163E00, 2.501699E02
$$ 4.722442E00, 2.445680E02
$$ 5.115649E00, 2.389717E02
$$ 5.508776E00, 2.333811E02
$$ 5.901818E00, 2.277961E02
$$ 6.294768E00, 2.222168E02
$$ 6.687621E00, 2.166432E02
$$ 7.080370E00, 2.110753E02
$$ 7.473009E00, 2.055130E02
$$ 7.865533E00, 1.999564E02
$$ 8.257935E00, 1.944055E02
$$ 8.650208E00, 1.888602E02
$$ 9.042348E00, 1.833206E02
$$ 9.434347E00, 1.777867E02
$$ 9.826200E00, 1.722585E02
$$ 1.021790E01, 1.667359E02
$$ 1.060944E01, 1.612190E02
$$ 1.100082E01, 1.557077E02
$$ 1.139203E01, 1.502022E02
$$ 1.178306E01, 1.447023E02
$$ 1.217391E01, 1.392080E02
$$ 1.256457E01, 1.337195E02
$$ 1.295503E01, 1.282366E02
$$ 1.334530E01, 1.227594E02
$$ 1.373536E01, 1.172878E02
$$ 1.412520E01, 1.118219E02
$$ 1.451483E01, 1.063617E02
$$ 1.490423E01, 1.009072E02
$$ 1.529340E01, 9.545831E01
$$ 1.568233E01, 9.001511E01
$$ 1.607102E01, 8.457758E01
$$ 1.645946E01, 7.914572E01
$$ 1.684764E01, 7.371953E01
$$ 1.723557E01, 6.829901E01
$$ 1.762323E01, 6.288416E01
$$ 1.801061E01, 5.747498E01
$$ 1.839771E01, 5.207147E01
$$ 1.878453E01, 4.667363E01
$$ 1.917106E01, 4.128146E01
$$ 1.955729E01, 3.589496E01
$$ 1.994322E01, 3.051413E01
$$ 2.032884E01, 2.513897E01
$$ 2.071415E01, 1.976948E01
$$ 2.109913E01, 1.440566E01
$$ 2.148379E01, 9.047509E00
$$ 2.186811E01, 3.695029E00
$$ 2.225209E01, 3.583482E02
$$ 2.263573E01, 3.530071E02
$$ 2.301902E01, 3.476716E02
$$ 2.340195E01, 3.423418E02
$$ 2.378452E01, 3.370177E02
$$ 2.416672E01, 3.316992E02
$$ 2.454855E01, 3.263864E02
$$ 2.492999E01, 3.210793E02
$$ 2.531105E01, 3.157779E02
$$ 2.569172E01, 3.104821E02
$$ 2.607199E01, 3.051920E02
$$ 2.645185E01, 2.999075E02
$$ 2.683131E01, 2.946288E02
$$ 2.721035E01, 2.893557E02
$$ 2.758896E01, 2.840882E02
$$ 2.796715E01, 2.788265E02
$$ 2.834491E01, 2.735704E02
$$ 2.872223E01, 2.683200E02
$$ 2.909910E01, 2.630752E02
$$ 2.947552E01, 2.578361E02
$$ 2.985148E01, 2.526027E02
$$ 3.022698E01, 2.473750E02
$$ 3.060201E01, 2.421529E02
$$ 3.097657E01, 2.369365E02
$$ 3.135065E01, 2.317258E02
$$ 3.172424E01, 2.265207E02
$$ 3.209734E01, 2.213213E02
$$ 3.246995E01, 2.161276E02
$$ 3.284205E01, 2.109396E02
$$ 3.321364E01, 2.057572E02
$$ 3.358471E01, 2.005805E02
$$ 3.395527E01, 1.954094E02
$$ 3.432530E01, 1.902441E02
$$ 3.469480E01, 1.850844E02
$$ 3.506376E01, 1.799303E02
$$ 3.543217E01, 1.747820E02
$$ 3.580004E01, 1.696393E02
$$ 3.616735E01, 1.645023E02
$$ 3.653410E01, 1.593709E02
$$ 3.690029E01, 1.542452E02
$$ 3.726590E01, 1.491252E02
$$ 3.763094E01, 1.440109E02
$$ 3.799539E01, 1.389022E02
$$ 3.835925E01, 1.337992E02
$$ 3.872252E01, 1.287019E02
$$ 3.908519E01, 1.236102E02
$$ 3.944726E01, 1.185242E02
$$ 3.980871E01, 1.134439E02
$$ 4.016954E01, 1.083693E02
$$ 4.052975E01, 1.033003E02
$$ 4.088934E01, 9.823697E01
$$ 4.124829E01, 9.317933E01
$$ 4.160660E01, 8.812736E01
$$ 4.196427E01, 8.308106E01
$$ 4.232128E01, 7.804043E01
$$ 4.267764E01, 7.300547E01
$$ 4.303334E01, 6.797618E01
$$ 4.338837E01, 6.295256E01
$$ 4.374273E01, 5.793461E01
$$ 4.409641E01, 5.292233E01
$$ 4.444941E01, 4.791572E01
$$ 4.480172E01, 4.291478E01
$$ 4.515334E01, 3.791951E01
$$ 4.550425E01, 3.292991E01
$$ 4.585446E01, 2.794598E01
$$ 4.620396E01, 2.296772E01
$$ 4.655274E01, 1.799513E01
$$ 4.690080E01, 1.302821E01
$$ 4.724814E01, 8.066959E00
$$ 4.759474E01, 3.111379E00
$$ 4.794060E01, 3.581615E02
$$ 4.828573E01, 3.532172E02
$$ 4.863010E01, 3.482787E02
$$ 4.897372E01, 3.433458E02
$$ 4.931658E01, 3.384185E02
$$ 4.965867E01, 3.334970E02
$$ 5.000000E01, 3.285811E02
$$ 5.034055E01, 3.236709E02
$$ 5.068032E01, 3.187663E02
$$ 5.101931E01, 3.138674E02
$$ 5.135750E01, 3.089742E02
$$ 5.169490E01, 3.040867E02
$$ 5.203150E01, 2.992048E02
$$ 5.236729E01, 2.943286E02
$$ 5.270227E01, 2.894581E02
$$ 5.303643E01, 2.845932E02
$$ 5.336978E01, 2.797340E02
$$ 5.370229E01, 2.748805E02
$$ 5.403397E01, 2.700327E02
$$ 5.436481E01, 2.651905E02
$$ 5.469482E01, 2.603540E02
$$ 5.502397E01, 2.555231E02
$$ 5.535227E01, 2.506980E02
$$ 5.567971E01, 2.458785E02
$$ 5.600629E01, 2.410646E02
$$ 5.633201E01, 2.362565E02
$$ 5.665684E01, 2.314540E02
$$ 5.698081E01, 2.266572E02
$$ 5.730388E01, 2.218660E02
$$ 5.762607E01, 2.170805E02
$$ 5.794737E01, 2.123007E02
$$ 5.826777E01, 2.075266E02
$$ 5.858726E01, 2.027581E02
$$ 5.890585E01, 1.979953E02
$$ 5.922353E01, 1.932382E02
$$ 5.954028E01, 1.884867E02
$$ 5.985612E01, 1.837409E02
$$ 6.017102E01, 1.790008E02
$$ 6.048499E01, 1.742664E02
$$ 6.079803E01, 1.695376E02
$$ 6.111012E01, 1.648145E02
$$ 6.142127E01, 1.600970E02
$$ 6.173147E01, 1.553853E02
$$ 6.204070E01, 1.506792E02
$$ 6.234898E01, 1.459787E02
$$ 6.265629E01, 1.412840E02
$$ 6.296263E01, 1.365949E02
$$ 6.326799E01, 1.319115E02
$$ 6.357237E01, 1.272337E02
$$ 6.387577E01, 1.225616E02
$$ 6.417818E01, 1.178952E02
$$ 6.447959E01, 1.132345E02
$$ 6.478001E01, 1.085794E02
$$ 6.507941E01, 1.039300E02
$$ 6.537782E01, 9.928628E01
$$ 6.567520E01, 9.464822E01
$$ 6.597157E01, 9.001583E01
$$ 6.626692E01, 8.538911E01
$$ 6.656124E01, 8.076806E01
$$ 6.685453E01, 7.615268E01
$$ 6.714678E01, 7.154297E01
$$ 6.743799E01, 6.693893E01
$$ 6.772816E01, 6.234056E01
$$ 6.801727E01, 5.774786E01
$$ 6.830534E01, 5.316083E01
$$ 6.859234E01, 4.857947E01
$$ 6.887828E01, 4.400378E01
$$ 6.916315E01, 3.943376E01
$$ 6.944696E01, 3.486941E01
$$ 6.972968E01, 3.031073E01
$$ 7.001132E01, 2.575772E01
$$ 7.029188E01, 2.121038E01
$$ 7.057135E01, 1.666871E01
$$ 7.084973E01, 1.213271E01
$$ 7.112701E01, 7.602379E00
$$ 7.140318E01, 3.077719E00
$$ 7.167825E01, 3.585587E02
$$ 7.195221E01, 3.540454E02
$$ 7.222505E01, 3.495378E02
$$ 7.249678E01, 3.450358E02
$$ 7.276738E01, 3.405395E02
$$ 7.303685E01, 3.360488E02
$$ 7.330519E01, 3.315639E02
$$ 7.357239E01, 3.270846E02
$$ 7.383845E01, 3.226109E02
$$ 7.410337E01, 3.181430E02
$$ 7.436714E01, 3.136807E02
$$ 7.462976E01, 3.092241E02
$$ 7.489122E01, 3.047731E02
$$ 7.515152E01, 3.003278E02
$$ 7.541066E01, 2.958882E02
$$ 7.566863E01, 2.914543E02
$$ 7.592542E01, 2.870260E02
$$ 7.618104E01, 2.826034E02
$$ 7.643548E01, 2.781865E02
$$ 7.668873E01, 2.737752E02
$$ 7.694079E01, 2.693696E02
$$ 7.719167E01, 2.649697E02
$$ 7.744134E01, 2.605755E02
$$ 7.768981E01, 2.561869E02
$$ 7.793709E01, 2.518040E02
$$ 7.818315E01, 2.474267E02
$$ 7.842800E01, 2.430552E02
$$ 7.867163E01, 2.386893E02
$$ 7.891405E01, 2.343290E02
$$ 7.915524E01, 2.299745E02
$$ 7.939521E01, 2.256256E02
$$ 7.963395E01, 2.212824E02
$$ 7.987145E01, 2.169448E02
$$ 8.010771E01, 2.126129E02
$$ 8.034273E01, 2.082867E02
$$ 8.057651E01, 2.039662E02
$$ 8.080904E01, 1.996513E02
$$ 8.104031E01, 1.953421E02
$$ 8.127033E01, 1.910386E02
$$ 8.149909E01, 1.867407E02
$$ 8.172659E01, 1.824485E02
$$ 8.195282E01, 1.781620E02
$$ 8.217778E01, 1.738812E02
$$ 8.240147E01, 1.696060E02
$$ 8.262388E01, 1.653365E02
$$ 8.284501E01, 1.610726E02
$$ 8.306485E01, 1.568145E02
$$ 8.328341E01, 1.525620E02
$$ 8.350068E01, 1.483151E02
$$ 8.371665E01, 1.440740E02
$$ 8.393132E01, 1.398385E02
$$ 8.414470E01, 1.356087E02
$$ 8.435677E01, 1.313845E02
$$ 8.456753E01, 1.271660E02
$$ 8.477698E01, 1.229532E02
$$ 8.498512E01, 1.187461E02
$$ 8.519194E01, 1.145446E02
$$ 8.539744E01, 1.103488E02
$$ 8.560162E01, 1.061587E02
$$ 8.580447E01, 1.019742E02
$$ 8.600599E01, 9.779543E01
$$ 8.620618E01, 9.362231E01
$$ 8.640503E01, 8.945486E01
$$ 8.660254E01, 8.529308E01
$$ 8.679871E01, 8.113697E01
$$ 8.699354E01, 7.698653E01
$$ 8.718701E01, 7.284176E01
$$ 8.737914E01, 6.870266E01
$$ 8.756991E01, 6.456923E01
$$ 8.775932E01, 6.044147E01
$$ 8.794738E01, 5.631938E01
$$ 8.813407E01, 5.220296E01
$$ 8.831939E01, 4.809221E01
$$ 8.850335E01, 4.398713E01
$$ 8.868593E01, 3.988772E01
$$ 8.886714E01, 3.579398E01
$$ 8.904697E01, 3.170591E01
$$ 8.922542E01, 2.762351E01
$$ 8.940249E01, 2.354678E01
$$ 8.957818E01, 1.947572E01
$$ 8.975247E01, 1.541033E01
$$ 8.992538E01, 1.135061E01
$$ 9.009689E01, 7.296559E00
$$ 9.026700E01, 3.248179E00
$$ 9.043572E01, 3.592055E02
$$ 9.060303E01, 3.551684E02
$$ 9.076894E01, 3.511371E02
$$ 9.093344E01, 3.471114E02
$$ 9.109653E01, 3.430913E02
$$ 9.125822E01, 3.390770E02
$$ 9.141848E01, 3.350683E02
$$ 9.157733E01, 3.310653E02
$$ 9.173476E01, 3.270679E02
$$ 9.189077E01, 3.230762E02
$$ 9.204536E01, 3.190902E02
$$ 9.219852E01, 3.151099E02
$$ 9.235024E01, 3.111352E02
$$ 9.250054E01, 3.071662E02
$$ 9.264941E01, 3.032029E02
$$ 9.279684E01, 2.992452E02
$$ 9.294283E01, 2.952932E02
$$ 9.308737E01, 2.913469E02
$$ 9.323048E01, 2.874063E02
$$ 9.337214E01, 2.834713E02
$$ 9.351236E01, 2.795420E02
$$ 9.365112E01, 2.756183E02
$$ 9.378844E01, 2.717004E02
$$ 9.392430E01, 2.677881E02
$$ 9.405870E01, 2.638814E02
$$ 9.419165E01, 2.599805E02
$$ 9.432314E01, 2.560852E02
$$ 9.445316E01, 2.521956E02
$$ 9.458172E01, 2.483116E02
$$ 9.470882E01, 2.444333E02
$$ 9.483445E01, 2.405607E02
$$ 9.495861E01, 2.366938E02
$$ 9.508129E01, 2.328325E02
$$ 9.520250E01, 2.289769E02
$$ 9.532224E01, 2.251270E02
$$ 9.544050E01, 2.212827E02
$$ 9.555728E01, 2.174441E02
$$ 9.567258E01, 2.136112E02
$$ 9.578640E01, 2.097840E02
$$ 9.589873E01, 2.059624E02
$$ 9.600957E01, 2.021465E02
$$ 9.611893E01, 1.983362E02
$$ 9.622680E01, 1.945317E02
$$ 9.633318E01, 1.907328E02
$$ 9.643806E01, 1.869395E02
$$ 9.654145E01, 1.831520E02
$$ 9.664334E01, 1.793701E02
$$ 9.674374E01, 1.755939E02
$$ 9.684263E01, 1.718233E02
$$ 9.694003E01, 1.680584E02
$$ 9.703592E01, 1.642992E02
$$ 9.713031E01, 1.605457E02
$$ 9.722319E01, 1.567978E02
$$ 9.731457E01, 1.530556E02
$$ 9.740443E01, 1.493191E02
$$ 9.749279E01, 1.455882E02
$$ 9.757964E01, 1.418630E02
$$ 9.766497E01, 1.381435E02
$$ 9.774879E01, 1.344297E02
$$ 9.783110E01, 1.307215E02
$$ 9.791189E01, 1.270190E02
$$ 9.799116E01, 1.233221E02
$$ 9.806892E01, 1.196310E02
$$ 9.814515E01, 1.159455E02
$$ 9.821986E01, 1.122656E02
$$ 9.829305E01, 1.085915E02
$$ 9.836472E01, 1.049230E02
$$ 9.843486E01, 1.012602E02
$$ 9.850348E01, 9.760301E01
$$ 9.857057E01, 9.395153E01
$$ 9.863613E01, 9.030572E01
$$ 9.870016E01, 8.666558E01
$$ 9.876267E01, 8.303111E01
$$ 9.882364E01, 7.940231E01
$$ 9.888308E01, 7.577918E01
$$ 9.894099E01, 7.216172E01
$$ 9.899737E01, 6.854993E01
$$ 9.905221E01, 6.494381E01
$$ 9.910551E01, 6.134336E01
$$ 9.915728E01, 5.774858E01
$$ 9.920752E01, 5.415947E01
$$ 9.925621E01, 5.057603E01
$$ 9.930337E01, 4.699826E01
$$ 9.934899E01, 4.342616E01
$$ 9.939307E01, 3.985973E01
$$ 9.943561E01, 3.629897E01
$$ 9.947660E01, 3.274388E01
$$ 9.951606E01, 2.919446E01
$$ 9.955397E01, 2.565071E01
$$ 9.959034E01, 2.211263E01
$$ 9.962517E01, 1.858022E01
$$ 9.965845E01, 1.505348E01
$$ 9.969019E01, 1.153241E01
$$ 9.972038E01, 8.017009E00
$$ 9.974903E01, 4.507279E00
$$ 9.977613E01, 1.003219E00
$$ 9.980168E01, 3.575048E02
$$ 9.982569E01, 3.540121E02
$$ 9.984815E01, 3.505251E02
$$ 9.986906E01, 3.470437E02
$$ 9.988843E01, 3.435680E02
$$ 9.990625E01, 3.400979E02
$$ 9.992252E01, 3.366336E02
$$ 9.993724E01, 3.331749E02
$$ 9.995041E01, 3.297218E02
$$ 9.996203E01, 3.262745E02
$$ 9.997210E01, 3.228328E02
$$ 9.998063E01, 3.193968E02
$$ 9.998760E01, 3.159664E02
$$ 9.999303E01, 3.125417E02
$$ 9.999690E01, 3.091227E02
$$ 9.999923E01, 3.057094E02
$$ 1.000000E02, 3.023017E02
$$ 1.000000E02, 2.988997E02
$$ 1.000000E02, 2.955034E02
$$ 1.000000E02, 2.921127E02
$$ 1.000000E02, 2.887277E02
$$ 1.000000E02, 2.853484E02
$$ 1.000000E02, 2.819748E02
$$ 1.000000E02, 2.786068E02
$$ 1.000000E02, 2.752445E02
$$ 1.000000E02, 2.718878E02
$$ 1.000000E02, 2.685369E02
$$ 1.000000E02, 2.651916E02
$$ 1.000000E02, 2.618519E02
$$ 1.000000E02, 2.585180E02
$$ 1.000000E02, 2.551897E02
$$ 1.000000E02, 2.518671E02
$$ 1.000000E02, 2.485501E02
$$ 1.000000E02, 2.452388E02
$$ 1.000000E02, 2.419332E02
$$ 1.000000E02, 2.386333E02
$$ 1.000000E02, 2.353390E02
$$ 1.000000E02, 2.320504E02
$$ 1.000000E02, 2.287675E02
$$ 1.000000E02, 2.254902E02
$$ 1.000000E02, 2.222186E02
$$ 1.000000E02, 2.189527E02
$$ 1.000000E02, 2.156925E02
$$ 1.000000E02, 2.124379E02
$$ 1.000000E02, 2.091890E02
$$ 1.000000E02, 2.059457E02
$$ 1.000000E02, 2.027082E02
$$ 1.000000E02, 1.994763E02
$$ 1.000000E02, 1.962500E02
$$ 1.000000E02, 1.930295E02
$$ 1.000000E02, 1.898146E02
$$ 1.000000E02, 1.866054E02
$$ 1.000000E02, 1.834018E02
$$ 1.000000E02, 1.802039E02
$$ 1.000000E02, 1.770117E02
$$ 1.000000E02, 1.738252E02
$$ 1.000000E02, 1.706443E02
$$ 1.000000E02, 1.674691E02
$$ 1.000000E02, 1.642996E02
$$ 1.000000E02, 1.611357E02
$$ 1.000000E02, 1.579775E02
$$ 1.000000E02, 1.548250E02
$$ 1.000000E02, 1.516782E02
$$ 1.000000E02, 1.485370E02
$$ 1.000000E02, 1.454015E02
$$ 1.000000E02, 1.422716E02
$$ 1.000000E02, 1.391475E02
$$ 1.000000E02, 1.360290E02
$$ 1.000000E02, 1.329161E02
$$ 1.000000E02, 1.298090E02
$$ 1.000000E02, 1.267075E02
$$ 1.000000E02, 1.236117E02
$$ 1.000000E02, 1.205215E02
$$ 1.000000E02, 1.174370E02
$$ 1.000000E02, 1.143582E02
$$ 1.000000E02, 1.112851E02
$$ 1.000000E02, 1.082176E02
$$ 1.000000E02, 1.051558E02
$$ 1.000000E02, 1.020997E02
$$ 1.000000E02, 9.904922E01
$$ 1.000000E02, 9.600443E01
$$ 1.000000E02, 9.296531E01
$$ 1.000000E02, 8.993186E01
$$ 1.000000E02, 8.690408E01
$$ 1.000000E02, 8.388197E01
$$ 1.000000E02, 8.086553E01
$$ 1.000000E02, 7.785476E01
$$ 1.000000E02, 7.484966E01
$$ 1.000000E02, 7.185023E01
$$ 1.000000E02, 6.885647E01
$$ 1.000000E02, 6.586838E01
$$ 1.000000E02, 6.288596E01
$$ 1.000000E02, 5.990921E01
$$ 1.000000E02, 5.693813E01
$$ 1.000000E02, 5.397272E01
$$ 1.000000E02, 5.101298E01
$$ 1.000000E02, 4.805891E01
$$ 1.000000E02, 4.511051E01
$$ 1.000000E02, 4.216778E01
$$ 1.000000E02, 3.923072E01
$$ 1.000000E02, 3.629933E01
$$ 1.000000E02, 3.337361E01
$$ 1.000000E02, 3.045356E01
$$ 1.000000E02, 2.753918E01
$$ 1.000000E02, 2.463047E01
$$ 1.000000E02, 2.172743E01
$$ 1.000000E02, 1.883006E01
$$ 1.000000E02, 1.593836E01
$$ 1.000000E02, 1.305233E01
$$ 1.000000E02, 1.017197E01
$$ 1.000000E02, 7.297279E00
$$ 1.000000E02, 4.428259E00
$$ 1.000000E02, 1.564909E00
$$ 1.000000E02, 3.587072E02
$$ 1.000000E02, 3.558552E02
$$ 1.000000E02, 3.530089E02
$$ 1.000000E02, 3.501682E02
$$ 1.000000E02, 3.473332E02
$$ 1.000000E02, 3.445039E02
$$ 1.000000E02, 3.416802E02
$$ 1.000000E02, 3.388622E02
$$ 1.000000E02, 3.360499E02
$$ 1.000000E02, 3.332433E02
$$ 1.000000E02, 3.304423E02
$$ 1.000000E02, 3.276470E02
$$ 1.000000E02, 3.248573E02
$$ 1.000000E02, 3.220734E02
$$ 1.000000E02, 3.192951E02
$$ 1.000000E02, 3.165224E02
$$ 1.000000E02, 3.137555E02
$$ 1.000000E02, 3.109942E02
$$ 1.000000E02, 3.082386E02
$$ 1.000000E02, 3.054886E02
$$ 1.000000E02, 3.027443E02
$$ 1.000000E02, 3.000057E02
$$ 1.000000E02, 2.972728E02
$$ 1.000000E02, 2.945455E02
$$ 1.000000E02, 2.918239E02
$$ 1.000000E02, 2.891080E02
$$ 1.000000E02, 2.863977E02
$$ 1.000000E02, 2.836931E02
$$ 1.000000E02, 2.809942E02
$$ 1.000000E02, 2.783010E02
$$ 1.000000E02, 2.756134E02
$$ 1.000000E02, 2.729315E02
$$ 1.000000E02, 2.702552E02
$$ 1.000000E02, 2.675847E02
$$ 1.000000E02, 2.649198E02
$$ 1.000000E02, 2.622605E02
$$ 1.000000E02, 2.596070E02
$$ 1.000000E02, 2.569591E02
$$ 1.000000E02, 2.543169E02
$$ 1.000000E02, 2.516803E02
$$ 1.000000E02, 2.490494E02
$$ 1.000000E02, 2.464242E02
$$ 1.000000E02, 2.438047E02
$$ 1.000000E02, 2.411908E02
$$ 1.000000E02, 2.385826E02
$$ 1.000000E02, 2.359801E02
$$ 1.000000E02, 2.333832E02
$$ 1.000000E02, 2.307920E02
$$ 1.000000E02, 2.282065E02
$$ 1.000000E02, 2.256267E02
$$ 1.000000E02, 2.230525E02
$$ 1.000000E02, 2.204840E02
$$ 1.000000E02, 2.179211E02
$$ 1.000000E02, 2.153640E02
$$ 1.000000E02, 2.128125E02
$$ 1.000000E02, 2.102666E02
$$ 1.000000E02, 2.077265E02
$$ 1.000000E02, 2.051920E02
$$ 1.000000E02, 2.026632E02
$$ 1.000000E02, 2.001400E02
$$ 1.000000E02, 1.976225E02
$$ 1.000000E02, 1.951107E02
$$ 1.000000E02, 1.926046E02
$$ 1.000000E02, 1.901041E02
$$ 1.000000E02, 1.876093E02
$$ 1.000000E02, 1.851202E02
$$ 1.000000E02, 1.826367E02
$$ 1.000000E02, 1.801589E02
$$ 1.000000E02, 1.776868E02
$$ 1.000000E02, 1.752204E02
$$ 1.000000E02, 1.727596E02
$$ 1.000000E02, 1.703045E02
$$ 1.000000E02, 1.678550E02
$$ 1.000000E02, 1.654113E02
$$ 1.000000E02, 1.629732E02
$$ 1.000000E02, 1.605407E02
$$ 1.000000E02, 1.581140E02
$$ 1.000000E02, 1.556929E02
$$ 1.000000E02, 1.532775E02
$$ 1.000000E02, 1.508677E02
$$ 1.000000E02, 1.484636E02
$$ 1.000000E02, 1.460652E02
$$ 1.000000E02, 1.436725E02
$$ 1.000000E02, 1.412854E02
$$ 1.000000E02, 1.389040E02
$$ 1.000000E02, 1.365283E02
$$ 1.000000E02, 1.341582E02
$$ 1.000000E02, 1.317938E02
$$ 1.000000E02, 1.294351E02
$$ 1.000000E02, 1.270821E02
$$ 1.000000E02, 1.247347E02
$$ 1.000000E02, 1.223930E02
$$ 1.000000E02, 1.200569E02
$$ 1.000000E02, 1.177266E02
$$ 1.000000E02, 1.154019E02
$$ 1.000000E02, 1.130828E02
$$ 1.000000E02, 1.107695E02
$$ 1.000000E02, 1.084618E02
$$ 1.000000E02, 1.061598E02
$$ 1.000000E02, 1.038634E02
$$ 1.000000E02, 1.015727E02
$$ 1.000000E02, 9.928772E01
$$ 1.000000E02, 9.700838E01
$$ 1.000000E02, 9.473471E01
$$ 1.000000E02, 9.246671E01
$$ 1.000000E02, 9.020438E01
$$ 1.000000E02, 8.794772E01
$$ 1.000000E02, 8.569673E01
$$ 1.000000E02, 8.345141E01
$$ 1.000000E02, 8.121176E01
$$ 1.000000E02, 7.897778E01
$$ 1.000000E02, 7.674947E01
$$ 1.000000E02, 7.452683E01
$$ 1.000000E02, 7.230986E01
$$ 1.000000E02, 7.009856E01
$$ 1.000000E02, 6.789293E01
$$ 1.000000E02, 6.569297E01
$$ 1.000000E02, 6.349868E01
$$ 1.000000E02, 6.131006E01
$$ 1.000000E02, 5.912711E01
$$ 1.000000E02, 5.694983E01
$$ 1.000000E02, 5.477822E01
$$ 1.000000E02, 5.261228E01
$$ 1.000000E02, 5.045201E01
$$ 1.000000E02, 4.829741E01
$$ 1.000000E02, 4.614848E01
$$ 1.000000E02, 4.400522E01
$$ 1.000000E02, 4.186763E01
$$ 1.000000E02, 3.973571E01
$$ 1.000000E02, 3.760946E01
$$ 1.000000E02, 3.548888E01
$$ 1.000000E02, 3.337397E01
$$ 1.000000E02, 3.126473E01
$$ 1.000000E02, 2.916116E01
$$ 1.000000E02, 2.706326E01
$$ 1.000000E02, 2.497103E01
$$ 1.000000E02, 2.288447E01
$$ 1.000000E02, 2.080358E01
$$ 1.000000E02, 1.872836E01
$$ 1.000000E02, 1.665881E01
$$ 1.000000E02, 1.459493E01
$$ 1.000000E02, 1.253672E01
$$ 1.000000E02, 1.048418E01
$$ 1.000000E02, 8.437309E00
$$ 1.000000E02, 6.396109E00
$$ 1.000000E02, 4.360579E00
$$ 1.000000E02, 2.330719E00
$$ 1.000000E02, 3.065287E-01
$$ 1.000000E02, 3.582880E02
$$ 1.000000E02, 3.562752E02
$$ 1.000000E02, 3.542680E02
$$ 1.000000E02, 3.522665E02
$$ 1.000000E02, 3.502706E02
$$ 1.000000E02, 3.482805E02
$$ 1.000000E02, 3.462960E02
$$ 1.000000E02, 3.443171E02
$$ 1.000000E02, 3.423440E02
$$ 1.000000E02, 3.403765E02
$$ 1.000000E02, 3.384147E02
$$ 1.000000E02, 3.364585E02
$$ 1.000000E02, 3.345080E02
$$ 1.000000E02, 3.325632E02
$$ 1.000000E02, 3.306241E02
$$ 1.000000E02, 3.286906E02
$$ 1.000000E02, 3.267628E02
$$ 1.000000E02, 3.248407E02
$$ 1.000000E02, 3.229242E02
$$ 1.000000E02, 3.210134E02
$$ 1.000000E02, 3.191083E02
$$ 1.000000E02, 3.172089E02
$$ 1.000000E02, 3.153151E02
$$ 1.000000E02, 3.134270E02
$$ 1.000000E02, 3.115445E02
$$ 1.000000E02, 3.096678E02
$$ 1.000000E02, 3.077967E02
$$ 1.000000E02, 3.059312E02
$$ 1.000000E02, 3.040715E02
$$ 1.000000E02, 3.022174E02
$$ 1.000000E02, 3.003690E02
$$ 1.000000E02, 2.985262E02
$$ 1.000000E02, 2.966891E02
$$ 1.000000E02, 2.948577E02
$$ 1.000000E02, 2.930320E02
$$ 1.000000E02, 2.912119E02
$$ 1.000000E02, 2.893975E02
$$ 1.000000E02, 2.875888E02
$$ 1.000000E02, 2.857857E02
$$ 1.000000E02, 2.839883E02
$$ 1.000000E02, 2.821966E02
$$ 1.000000E02, 2.804106E02
$$ 1.000000E02, 2.786302E02
$$ 1.000000E02, 2.768555E02
$$ 1.000000E02, 2.750864E02
$$ 1.000000E02, 2.733231E02
$$ 1.000000E02, 2.715654E02
$$ 1.000000E02, 2.698133E02
$$ 1.000000E02, 2.680670E02
$$ 1.000000E02, 2.663263E02
$$ 1.000000E02, 2.645913E02
$$ 1.000000E02, 2.628619E02
$$ 1.000000E02, 2.611382E02
$$ 1.000000E02, 2.594202E02
$$ 1.000000E02, 2.577079E02
$$ 1.000000E02, 2.560012E02
$$ 1.000000E02, 2.543002E02
$$ 1.000000E02, 2.526049E02
$$ 1.000000E02, 2.509152E02
$$ 1.000000E02, 2.492312E02
$$ 1.000000E02, 2.475529E02
$$ 1.000000E02, 2.458803E02
$$ 1.000000E02, 2.442133E02
$$ 1.000000E02, 2.425520E02
$$ 1.000000E02, 2.408963E02
$$ 1.000000E02, 2.392464E02
$$ 1.000000E02, 2.376021E02
$$ 1.000000E02, 2.359634E02
$$ 1.000000E02, 2.343305E02
$$ 1.000000E02, 2.327032E02
$$ 1.000000E02, 2.310816E02
$$ 1.000000E02, 2.294656E02
$$ 1.000000E02, 2.278553E02
$$ 1.000000E02, 2.262507E02
$$ 1.000000E02, 2.246518E02
$$ 1.000000E02, 2.230585E02
$$ 1.000000E02, 2.214709E02
$$ 1.000000E02, 2.198890E02
$$ 1.000000E02, 2.183127E02
$$ 1.000000E02, 2.167421E02
$$ 1.000000E02, 2.151772E02
$$ 1.000000E02, 2.136180E02
$$ 1.000000E02, 2.120644E02
$$ 1.000000E02, 2.105165E02
$$ 1.000000E02, 2.089742E02
$$ 1.000000E02, 2.074377E02
$$ 1.000000E02, 2.059068E02
$$ 1.000000E02, 2.043815E02
$$ 1.000000E02, 2.028620E02
$$ 1.000000E02, 2.013481E02
$$ 1.000000E02, 1.998399E02
$$ 1.000000E02, 1.983373E02
$$ 1.000000E02, 1.968404E02
$$ 1.000000E02, 1.953492E02
$$ 1.000000E02, 1.938637E02
$$ 1.000000E02, 1.923838E02
$$ 1.000000E02, 1.909096E02
$$ 1.000000E02, 1.894411E02
$$ 1.000000E02, 1.879782E02
$$ 1.000000E02, 1.865210E02
$$ 1.000000E02, 1.850695E02
$$ 1.000000E02, 1.836237E02
$$ 1.000000E02, 1.821835E02
$$ 1.000000E02, 1.807490E02
$$ 1.000000E02, 1.793201E02
$$ 1.000000E02, 1.778970E02
$$ 1.000000E02, 1.764795E02
$$ 1.000000E02, 1.750676E02
$$ 1.000000E02, 1.736615E02
$$ 1.000000E02, 1.722610E02
$$ 1.000000E02, 1.708662E02
$$ 1.000000E02, 1.694770E02
$$ 1.000000E02, 1.680935E02
$$ 1.000000E02, 1.667157E02
$$ 1.000000E02, 1.653436E02
$$ 1.000000E02, 1.639771E02
$$ 1.000000E02, 1.626163E02
$$ 1.000000E02, 1.612612E02
$$ 1.000000E02, 1.599117E02
$$ 1.000000E02, 1.585679E02
$$ 1.000000E02, 1.572298E02
$$ 1.000000E02, 1.558974E02
$$ 1.000000E02, 1.545706E02
$$ 1.000000E02, 1.532495E02
$$ 1.000000E02, 1.519340E02
$$ 1.000000E02, 1.506243E02
$$ 1.000000E02, 1.493202E02
$$ 1.000000E02, 1.480217E02
$$ 1.000000E02, 1.467290E02
$$ 1.000000E02, 1.454419E02
$$ 1.000000E02, 1.441605E02
$$ 1.000000E02, 1.428847E02
$$ 1.000000E02, 1.416146E02
$$ 1.000000E02, 1.403502E02
$$ 1.000000E02, 1.390915E02
$$ 1.000000E02, 1.378384E02
$$ 1.000000E02, 1.365910E02
$$ 1.000000E02, 1.353493E02
$$ 1.000000E02, 1.341132E02
$$ 1.000000E02, 1.328828E02
$$ 1.000000E02, 1.316581E02
$$ 1.000000E02, 1.304391E02
$$ 1.000000E02, 1.292257E02
$$ 1.000000E02, 1.280180E02
$$ 1.000000E02, 1.268159E02
$$ 1.000000E02, 1.256196E02
$$ 1.000000E02, 1.244289E02
$$ 1.000000E02, 1.232438E02
$$ 1.000000E02, 1.220645E02
$$ 1.000000E02, 1.208908E02
$$ 1.000000E02, 1.197228E02
$$ 1.000000E02, 1.185604E02
$$ 1.000000E02, 1.174037E02
$$ 1.000000E02, 1.162527E02
$$ 1.000000E02, 1.151074E02
$$ 1.000000E02, 1.139677E02
$$ 1.000000E02, 1.128337E02
$$ 1.000000E02, 1.117054E02
$$ 1.000000E02, 1.105827E02
$$ 1.000000E02, 1.094657E02
$$ 1.000000E02, 1.083544E02
$$ 1.000000E02, 1.072488E02
$$ 1.000000E02, 1.061488E02
$$ 1.000000E02, 1.050545E02
$$ 1.000000E02, 1.039658E02
$$ 1.000000E02, 1.028829E02
$$ 1.000000E02, 1.018056E02
$$ 1.000000E02, 1.007339E02
$$ 1.000000E02, 9.966797E01
$$ 1.000000E02, 9.860768E01
$$ 1.000000E02, 9.755306E01
$$ 1.000000E02, 9.650411E01
$$ 1.000000E02, 9.546083E01
$$ 1.000000E02, 9.442322E01
$$ 1.000000E02, 9.339128E01
$$ 1.000000E02, 9.236501E01
$$ 1.000000E02, 9.134441E01
$$ 1.000000E02, 9.032948E01
$$ 1.000000E02, 8.932022E01
$$ 1.000000E02, 8.831663E01
$$ 1.000000E02, 8.731871E01
$$ 1.000000E02, 8.632646E01
$$ 1.000000E02, 8.533988E01
$$ 1.000000E02, 8.435897E01
$$ 1.000000E02, 8.338373E01
$$ 1.000000E02, 8.241416E01
$$ 1.000000E02, 8.145026E01
$$ 1.000000E02, 8.049203E01
$$ 1.000000E02, 7.953947E01
$$ 1.000000E02, 7.859258E01
$$ 1.000000E02, 7.765136E01
$$ 1.000000E02, 7.671581E01
$$ 1.000000E02, 7.578593E01
$$ 1.000000E02, 7.486172E01
$$ 1.000000E02, 7.394318E01
$$ 1.000000E02, 7.303031E01
$$ 1.000000E02, 7.212311E01
$$ 1.000000E02, 7.122158E01
$$ 1.000000E02, 7.032572E01
$$ 1.000000E02, 6.943553E01
$$ 1.000000E02, 6.855101E01
$$ 1.000000E02, 6.767216E01
$$ 1.000000E02, 6.679898E01
$$ 1.000000E02, 6.593147E01
$$ 1.000000E02, 6.506963E01
$$ 1.000000E02, 6.421346E01
$$ 1.000000E02, 6.336296E01
$$ 1.000000E02, 6.251813E01
$$ 1.000000E02, 6.167897E01
$$ 1.000000E02, 6.084548E01
$$ 1.000000E02, 6.001766E01
$$ 1.000000E02, 5.919551E01
$$ 1.000000E02, 5.837903E01
$$ 1.000000E02, 5.756822E01
$$ 1.000000E02, 5.676308E01
$$ 1.000000E02, 5.596361E01
$$ 1.000000E02, 5.516981E01
$$ 1.000000E02, 5.438168E01
$$ 1.000000E02, 5.359922E01
$$ 1.000000E02, 5.282243E01
$$ 1.000000E02, 5.205131E01
$$ 1.000000E02, 5.128586E01
$$ 1.000000E02, 5.052608E01
$$ 1.000000E02, 4.977197E01
$$ 1.000000E02, 4.902353E01
$$ 1.000000E02, 4.828076E01
$$ 1.000000E02, 4.754366E01
$$ 1.000000E02, 4.681223E01
$$ 1.000000E02, 4.608647E01
$$ 1.000000E02, 4.536638E01
$$ 1.000000E02, 4.465196E01
$$ 1.000000E02, 4.394321E01
$$ 1.000000E02, 4.324013E01
$$ 1.000000E02, 4.254272E01
$$ 1.000000E02, 4.185098E01
$$ 1.000000E02, 4.116491E01
$$ 1.000000E02, 4.048451E01
$$ 1.000000E02, 3.980978E01
$$ 1.000000E02, 3.914072E01
$$ 1.000000E02, 3.847733E01
$$ 1.000000E02, 3.781961E01
$$ 1.000000E02, 3.716756E01
$$ 1.000000E02, 3.652118E01
$$ 1.000000E02, 3.588047E01
$$ 1.000000E02, 3.524543E01
$$ 1.000000E02, 3.461606E01
$$ 1.000000E02, 3.399236E01
$$ 1.000000E02, 3.337433E01
$$ 1.000000E02, 3.276197E01
$$ 1.000000E02, 3.215528E01
$$ 1.000000E02, 3.155426E01
$$ 1.000000E02, 3.095891E01
$$ 1.000000E02, 3.036923E01
$$ 1.000000E02, 2.978522E01
$$ 1.000000E02, 2.920688E01
$$ 1.000000E02, 2.863421E01
$$ 1.000000E02, 2.806721E01
$$ 1.000000E02, 2.750588E01
$$ 1.000000E02, 2.695022E01
$$ 1.000000E02, 2.640023E01
$$ 1.000000E02, 2.585591E01
$$ 1.000000E02, 2.531726E01
$$ 1.000000E02, 2.478428E01
$$ 1.000000E02, 2.425697E01
$$ 1.000000E02, 2.373533E01
$$ 1.000000E02, 2.321936E01
$$ 1.000000E02, 2.270906E01
$$ 1.000000E02, 2.220443E01
$$ 1.000000E02, 2.170547E01
$$ 1.000000E02, 2.121218E01
$$ 1.000000E02, 2.072456E01
$$ 1.000000E02, 2.024261E01
$$ 1.000000E02, 1.976633E01
$$ 1.000000E02, 1.929572E01
$$ 1.000000E02, 1.883078E01
$$ 1.000000E02, 1.837151E01
$$ 1.000000E02, 1.791791E01
$$ 1.000000E02, 1.746998E01
[...]
763 552049
762 404415
761 259929
760 4460
759 -48979
758 225736
757 489724
756 282021
755 -35485
754 -77509
753 139473
752 407079
751 283739
750 -50066
749 -182964
748 -72804
747 149211
746 393250
745 108463
744 -179039
743 -167546
742 -38756
741 -195516
740 -499763
739 -601650
738 -567912
737 85782
736 877761
735 1128744
734 906887
733 501301
732 203988
731 21463
730 -270268
729 -453747
728 -250532
727 171794
726 457185
725 361561
724 -133192
723 -390943
722 -185833
721 -8076
720 -278346
719 -297625
718 107302
717 165640
716 2143
715 153809
714 451541
713 486830
712 199303
711 -188188
710 -399327
709 -344186
708 -189143
707 -80059
706 78526
705 200587
704 226033
703 344940
702 258162
701 -7858
700 2652
699 -23889
698 -357197
697 -426330
696 -169590
695 21435
694 24876
693 6081
692 59675
691 -116072
690 -201931
689 -235924
688 -225282
687 -233903
686 -306983
685 -136743
684 -7656
683 226328
682 369432
681 185173
680 -13705
679 110688
678 -58266
677 -543865
676 -539616
675 -202225
674 -69650
673 -479408
672 -549829
671 -180041
670 158354
669 49797
668 -56356
667 -226235
666 -391090
665 -352406
664 -178166
663 -164489
662 -86395
661 -75823
660 119936
659 147105
658 172001
657 389707
656 224662
655 -11430
654 -64495
653 44006
652 115126
651 116715
650 109591
649 162529
648 116704
647 95373
646 73429
645 7638
644 -98934
643 -367184
642 -131307
641 -184706
640 -277930
639 -341150
638 -303623
637 181685
636 338197
635 122391
634 -19653
633 -20821
632 -104705
631 -250730
630 -188948
629 219942
628 285692
627 325214
626 278325
625 -39870
624 -237504
623 -232579
622 87018
621 355704
620 342217
619 274707
618 251408
617 433993
616 500820
615 440414
614 292879
613 469830
612 811763
611 640832
610 160705
609 -30671
608 18668
607 -142805
606 -307920
605 -268208
604 16939
603 177771
602 -370
601 -60174
600 -64614
599 -193770
598 -89653
597 109112
596 4176
595 -123484
594 109167
593 575097
592 661928
591 342054
590 256749
589 323733
588 402880
587 246487
586 113563
585 63049
584 -140420
583 -353347
582 -179746
581 -66228
580 -209064
579 -214221
578 -235559
577 -406809
576 -346775
575 257948
574 657695
573 576629
572 247532
571 109888
570 125782
569 199270
568 509285
567 865879
566 798607
565 574193
564 196839
563 -211412
562 -346067
561 80995
560 417254
559 743502
558 517848
557 380057
556 349893
555 -71294
554 -225136
553 -43096
552 -175100
551 -248161
550 -215845
549 64181
548 119225
547 -208242
546 -458657
545 -329117
544 -76267
543 18560
542 -138357
541 94237
540 197492
539 27720
538 -251516
537 9879
536 381116
535 -34737
534 -695049
533 -410136
532 166502
531 117652
530 -157812
529 -599909
528 -632103
527 -30833
526 496247
525 254763
524 209075
523 -66400
522 -338064
521 -263535
520 90986
519 137008
518 -106728
517 -226803
516 -145322
515 -23757
514 -125273
513 -125373
512 99700
511 -63228
510 -378669
509 -403494
508 -214784
507 113535
506 220797
505 31383
504 -288428
503 -254249
502 87341
501 196563
500 8453
499 -258384
498 -340174
497 36964
496 194295
495 25469
494 -47953
493 -63992
492 -139288
491 47910
490 177975
489 153176
488 175072
487 208340
486 79909
485 332793
484 466675
483 360032
482 67945
481 -148075
480 -271837
479 -346540
478 -149625
477 39724
476 191168
475 215055
474 119033
473 325414
472 549841
471 471919
470 102583
469 53723
468 -195900
467 -303099
466 -99693
465 180034
464 194195
463 -34977
462 -481449
461 -507965
460 -56220
459 328314
458 138469
457 -124948
456 -211097
455 -56390
454 262349
453 341588
452 423426
451 466224
450 288774
449 280867
448 229155
447 -28
446 -64914
445 219668
444 182999
443 -102055
442 91802
441 437409
440 303564
439 -245237
438 -615810
437 -601433
436 -399257
435 -110161
434 59325
433 76780
432 -261234
431 -226086
430 112447
429 248181
428 59038
427 -68830
426 55365
425 110465
424 102193
423 -98389
422 -5121
421 231170
420 284426
419 246203
418 181739
417 81992
416 -157567
415 -97767
414 -20796
413 -67167
412 -119947
411 -57598
410 57134
409 235587
408 93132
407 -286481
406 -287032
405 6822
404 151045
403 115163
402 229048
401 184470
400 194219
399 378907
398 379405
397 240633
396 -96402
395 -58212
394 86309
393 332781
392 243270
391 272332
390 188748
389 -120953
388 -576436
387 -923225
386 -818061
385 -515259
384 -351517
383 -348489
382 -211131
381 6550
380 131322
379 88790
378 77207
377 217342
376 450824
375 607254
374 356035
373 270288
372 417993
371 80723
370 -431100
369 -560377
368 -450272
367 -149305
366 60056
365 -96274
364 -121505
363 72262
362 157227
361 330862
360 516956
359 498260
358 -101443
357 -296162
356 -410378
355 -395629
354 -278494
353 -197364
352 24816
351 223201
350 334154
349 204505
348 -161518
347 -187225
346 175783
345 252616
344 -35327
343 -300626
342 -240859
341 96966
340 228006
339 202848
338 123812
337 8625
336 227613
335 230384
334 -287989
333 -487279
332 -155311
331 -3406
330 -196300
329 -185974
328 -365947
327 -850313
326 -754955
325 -270956
324 -242809
323 -394541
322 -519253
321 -327762
320 -84546
319 -248349
318 -971966
317 -1287861
316 -1107012
315 -786142
314 -371164
313 327770
312 424381
311 106235
310 -62813
309 51137
308 212689
307 385456
306 756742
305 820877
304 402199
303 143596
302 274411
301 251179
300 -82390
299 -473367
298 -461909
297 -280004
296 -59971
295 -296186
294 -576070
293 -446642
292 -56135
291 152827
290 397317
289 359231
288 49633
287 65250
286 351986
285 191246
284 -161655
283 -81394
282 139439
281 -132701
280 -574338
279 -278228
278 28719
277 142371
276 -95239
275 -253742
274 -269328
273 -50162
272 125069
271 275769
270 383945
269 439952
268 -92091
267 -133100
266 65181
265 399074
264 296945
263 -64473
262 -127263
261 -260989
260 -89650
259 -294
258 174214
257 219503
256 -1207
255 -112585
254 -29155
253 50680
252 388151
251 391432
250 321503
249 298130
248 237793
247 67350
246 162668
245 263287
244 85801
243 78846
242 -16892
241 -47115
240 36245
239 81330
238 176047
237 348525
236 352880
235 25850
234 -70169
233 144500
232 63379
231 -87601
230 -7123
229 -55962
228 -70168
227 68235
226 101369
225 128652
224 -2723
223 -218847
222 -325028
221 -160192
220 -10759
219 -55384
218 -20101
217 -44616
216 -302834
215 -508488
214 -440301
213 -327447
212 -148729
211 110493
210 15979
209 -420419
208 -631965
207 -596392
206 -510186
205 -394055
204 -268147
203 -233692
202 -96719
201 224771
200 358300
199 207573
198 -102205
197 -386879
196 -340951
195 -67374
194 116542
193 80901
192 -139296
191 -377816
190 -468030
189 -336561
188 -148524
187 -188342
186 -327721
185 -185909
184 243987
183 224416
182 -86955
181 -63160
180 210017
179 169925
178 20906
177 5759
176 110564
175 139466
174 126284
173 93144
172 207103
171 196949
170 55783
169 -134641
168 -116461
167 167960
166 224858
165 79371
164 -108741
163 -219615
162 25877
161 309175
160 275424
159 111506
158 -161709
157 -179341
156 -337728
155 16743
154 -74779
153 -391618
152 -320621
151 -40102
150 396488
149 338369
148 66676
147 67822
146 85160
145 -132161
144 -214479
143 -56990
142 159318
141 -53722
140 -357705
139 -413056
138 -118956
137 221248
136 519112
135 416216
134 -52787
133 -233939
132 -157725
131 130987
130 220554
129 7342
128 -154362
127 -192841
126 73762
125 -216941
124 -308916
123 24862
122 265900
121 155759
120 178136
119 175152
118 184745
117 310820
116 602447
115 511993
114 495911
113 299490
112 -39237
111 5166
110 218438
109 187123
108 -60324
107 -88847
106 40267
105 -88429
104 -223393
103 58803
102 3420
101 -156093
100 -220237
99 -211115
98 -205388
97 -209333
96 -367697
95 -300848
94 251961
93 770438
92 660505
91 215142
90 -44500
89 -23971
88 -24708
87 109882
86 459958
85 469328
84 187139
83 5557
82 -114317
81 -258554
80 -138443
79 42845
78 14002
77 41984
76 19051
75 -147570
74 -277703
73 -146623
72 25139
71 -5779
70 -315486
69 -514897
68 -208530
67 -14525
66 -217010
65 -255131
64 12564
63 -647
62 -240350
61 -61465
60 352323
59 427743
58 52404
57 -544523
56 -863605
55 -614973
54 -63361
53 551596
52 541600
51 374305
50 207724
49 -126719
48 -268186
47 -187474
46 198230
45 426483
44 199401
43 -8717
42 -100667
41 -7866
40 317018
39 448206
38 411495
37 -3325
36 -803087
35 -663863
34 -306043
33 201840
32 239703
31 54649
30 -69097
29 -330654
28 -285063
27 40077
26 104589
25 -53668
24 -60241
23 139673
22 340390
21 -6433
20 -565294
19 -540833
18 -260739
17 120693
16 366390
15 324694
14 250580
13 -33894
12 -140866
11 -187846
10 -127443
9 -40515
8 86088
7 139536
6 -9462
5 -247594
4 -91929
3 237685
2 364774
1 95286
0 17390
##PAGE= F1=-1408.115571364
##FIRST=     25659.6493742887, 4128.19602272727, 143575
##DATA TABLE= (F2++(Y..Y)), PROFILE
1023 143575
1022 -22445
1021 516
1020 163272
1019 26817
1018 -42107
1017 -3642
1016 -203842
1015 26683
1014 381796
1013 522586
1012 256908
1011 214501
1010 -286168
1009 -844626
1008 -758323
1007 -264936
1006 -266153
1005 -341446
1004 -301205
1003 -678147
1002 -673491
1001 -161527
1000 364805
999 350854
998 135617
997 -20298
996 -86680
995 -188021
994 -204347
993 -72519
992 82528
991 273547
990 362118
989 293154
988 63688
987 -182644
986 -400416
985 -530719
984 -467292
983 -106591
982 162878
981 249255
980 277716
979 120410
978 -115557
977 -347974
976 -243009
975 -46263
974 219052
973 445132
972 524893
971 300472
970 -301565
969 -617645
968 -163972
967 515828
966 340764
965 -589104
964 -1008318
963 -687283
962 64105
961 247611
960 -215809
959 -281932
958 51453
957 205704
956 172091
955 19560
954 -32728
953 -53233
952 -39055
951 -355059
950 -570344
949 -509587
948 -503754
947 -529769
946 -202191
945 353358
944 442558
943 296060
942 214006
941 423774
940 209281
939 -277388
938 -461399
937 -315194
936 -250607
935 117205
934 585393
933 586193
932 171639
931 -185772
930 -120874
929 -215116
928 -499234
927 -622546
926 -309816
925 92399
924 284887
923 -67945
922 -192894
921 50392
920 140563
919 -72307
918 -19382
917 105636
916 -72693
915 -195602
914 119505
913 282186
912 231026
911 -19019
910 195779
909 92202
908 291850
907 300860
906 269527
905 461815
904 350132
903 200592
902 85697
901 -70657
900 -73882
899 213846
898 366998
897 110302
896 -272692
895 -266593
894 -245935
893 -258447
892 -224961
891 -328344
890 -503352
889 -369542
888 -159148
887 151527
886 68479
885 -77061
884 -180963
883 -151285
882 -83576
881 -66247
880 -153481
879 -124808
878 -26062
877 -41077
876 -3777
875 222614
874 479372
873 349964
872 16884
871 -16347
870 564771
869 559035
868 318125
867 187684
866 183632
865 281180
864 510684
863 593600
862 518721
861 233133
860 -174037
859 -260469
858 -99069
857 187167
856 204670
855 -55821
854 -147647
853 -116988
852 30305
851 195072
850 461818
849 696471
848 449440
847 52397
846 -113559
845 -66578
844 -71935
843 -237551
842 -475907
841 -400680
840 -76909
839 -77116
838 -105576
837 -15709
836 -408558
835 -704611
834 -196952
833 -22314
832 -530105
831 130009
830 991056
829 712857
828 -404969
827 -944612
826 -536304
825 -120446
824 10183
823 139102
822 301128
821 -138124
820 -556935
819 -115813
818 626508
817 887487
816 700697
815 373980
814 -27570
813 -96881
812 456891
811 362215
810 -616789
809 -825884
808 -324660
807 -35900
806 223578
805 264754
804 297747
803 228631
802 13942
801 -204097
800 -178334
799 -57028
798 -125390
797 -45097
796 -49655
795 -234927
794 -78863
793 -12463
792 -348849
791 -342964
790 192876
789 951452
788 998110
787 388716
786 -30344
785 -57065
784 66409
783 -31846
782 -176360
781 -138169
780 -1467
779 103541
778 40238
777 3233
776 989
775 -130185
774 -296033
773 -250659
772 -184970
771 370435
770 599727
769 257389
768 -173290
767 -252687
766 -53366
765 158388
764 287981
763 380603
762 -69268
761 -38202
760 138089
759 180140
758 369051
757 546162
756 404383
755 197833
754 405892
753 525181
752 442971
751 173666
750 -107644
749 -7649
748 82724
747 -58126
746 68393
745 10682
744 123905
743 122962
742 -51685
741 -432508
740 -540701
739 -484744
738 -385859
737 421547
736 1071288
735 621081
734 219662
733 282589
732 251517
731 245174
730 208057
729 -164027
728 -338851
727 67149
726 402740
725 362105
724 102107
723 -400708
722 -503414
721 -285926
720 -333775
719 -348845
718 143918
717 349199
716 312646
715 553052
714 678307
713 308317
712 -116200
711 -402983
710 -513631
709 -357808
708 -138969
707 87176
706 321706
705 535874
704 560215
703 404247
702 59301
701 -186840
700 -127749
699 -90161
698 -543782
697 -767575
696 -486964
695 -400852
694 -437910
693 -534088
692 -172298
691 60704
690 240349
689 245052
688 180575
687 -30398
686 -186111
685 -151115
684 -94168
683 86660
682 202284
681 -74050
680 -490692
679 -373966
678 -211258
677 -422155
676 -634825
675 -432994
674 -50984
673 -96403
672 -270910
671 -54204
670 358931
669 356709
668 -66631
667 -103471
666 55822
665 93062
664 133671
663 239032
662 104193
661 17320
660 298855
659 57691
658 -109173
657 87751
656 118398
655 -24214
654 -176208
653 -35794
652 165508
651 238147
650 297857
649 443759
648 415624
647 211461
646 71475
645 19083
644 -77421
643 -129476
642 287876
641 84419
640 -219639
639 -388149
638 -456710
637 -127236
636 163969
635 285302
634 253415
633 175634
632 51413
631 -117063
630 -43241
629 412869
628 559046
627 388817
626 146225
625 -223508
624 -450216
623 -541697
622 -312745
621 197175
620 560630
619 522170
618 206862
617 20531
616 21310
615 200952
614 227919
613 401396
612 631339
611 338563
610 -134940
609 -168374
608 44638
607 -40473
606 -370728
605 -415367
604 -317619
603 -132818
602 -165601
601 -101997
600 -253269
599 -302654
598 606
597 172215
596 -19926
595 -226810
594 -178593
593 127687
592 463082
591 458644
590 362918
589 475102
588 572691
587 406826
586 168039
585 132373
584 45181
583 -199933
582 -209595
581 -238209
580 -421051
579 -267791
578 -85471
577 -215064
576 -361473
575 99390
574 378006
573 235687
572 46499
571 121125
570 -88272
569 -199845
568 525218
567 1012688
566 960568
565 542418
564 87170
563 -163634
562 -135591
561 218219
560 274938
559 551134
558 471350
557 335335
556 167274
555 -237274
554 -339543
553 67600
552 55663
551 -228763
550 -34710
549 183798
548 103474
547 -262687
546 -546669
545 -422842
544 -106392
543 108404
542 -299437
541 35728
540 290199
539 24318
538 -241545
537 184053
536 846059
535 649035
534 -47266
533 -241393
532 -317418
531 -330822
530 -440826
529 -917489
528 -996722
527 -429751
526 10366
525 -93162
524 277860
523 308786
522 18536
521 22783
520 313038
519 98178
518 -357994
517 -532099
516 -426061
515 -406541
514 -509096
513 -349098
512 71969
511 -43976
510 -457935
509 -509730
508 -206238
507 275264
506 249413
505 -116229
504 -253059
503 164932
502 456636
501 342856
500 165750
499 -196185
498 -514623
497 -163546
496 169679
495 69475
494 -2726
493 -29505
492 -208450
491 11598
490 61346
489 -90114
488 180582
487 555603
486 404205
485 239372
484 251690
483 303873
482 -96917
481 -347220
480 -78875
479 244022
478 243888
477 336844
476 346967
475 340289
474 157452
473 123177
472 340275
471 664019
470 650556
469 321510
468 -85627
467 -240718
466 -54782
465 168298
464 283233
463 199502
462 -218812
461 -472997
460 100637
459 440081
458 148459
457 -287908
456 -403345
455 63475
454 482480
453 476798
452 630182
451 697835
450 388888
449 315173
448 355793
447 148320
446 238524
445 498036
444 330840
443 -210205
442 -328635
441 86644
440 211516
439 -123089
438 -312753
437 -226303
436 -223636
435 -121091
434 223742
433 216476
432 -188721
431 -241080
430 38042
429 223621
428 187845
427 159960
426 220483
425 -105842
424 -253401
423 -145849
422 123557
421 181058
420 7029
419 -45971
418 -90428
417 -66900
416 -262109
415 -152634
414 -4528
413 -65883
412 12016
411 197727
410 254026
409 234249
408 31443
407 -262901
406 -279032
405 150953
404 334047
403 231293
402 185115
401 125857
400 199532
399 481732
398 609977
397 101011
396 -602722
395 -387362
394 -55968
393 6288
392 -185184
391 -1662
390 135076
389 -138947
388 -444923
387 -628904
386 -510491
385 -417920
384 -407280
383 -307295
382 -127024
381 -83136
380 -24052
379 80627
378 116115
377 228241
376 472990
375 631753
374 351086
373 289390
372 440510
371 321957
370 -310230
369 -792180
368 -674425
367 -247653
366 -141487
365 -448591
364 -419470
363 -171092
362 -75542
361 162742
360 389180
359 347823
358 -219598
357 -391293
356 -475847
355 -446463
354 -232975
353 -84009
352 -14004
351 131885
350 259203
349 98968
348 -192303
347 27314
346 363592
345 234216
344 -109535
343 -294062
342 -226622
341 211378
340 455072
339 320907
338 104292
337 -52314
336 46467
335 43380
334 -546921
333 -786671
332 -252162
331 31507
330 47709
329 122771
328 150606
327 122299
326 158437
325 61611
324 -272700
323 -338356
322 -264796
321 -117477
320 57332
319 -284825
318 -1029122
317 -1132282
316 -751176
315 -526968
314 -270263
313 218381
312 236656
311 66189
310 -22169
309 67822
308 -35598
307 13662
306 680280
305 1064699
304 856037
303 574003
302 461464
301 315373
300 6223
299 -250239
298 -95540
297 114920
296 173891
295 -94067
294 -351585
293 -384997
292 -227254
291 28029
290 322118
289 321825
288 183695
287 43448
286 170225
285 147776
284 -35442
283 -55617
282 -95992
281 -456115
280 -834556
279 -509371
278 -45809
277 276412
276 147221
275 -240334
274 -33906
273 407997
272 367095
271 23376
270 -132242
269 -16652
268 -447630
267 -170220
266 -2176
265 -57689
264 -159270
263 -263182
262 12464
261 79361
260 216653
259 -16038
258 81954
257 142267
256 -247662
255 -267844
254 70913
253 143411
252 161618
251 124947
250 150636
249 281965
248 129791
247 -197339
246 -116030
245 -13313
244 -124774
243 -223613
242 -396726
241 -361969
240 -180826
239 55711
238 159075
237 116399
236 -3139
235 -27604
234 264696
233 411523
232 158856
231 -48214
230 -28765
229 15468
228 178645
227 512292
226 244583
225 -133962
224 -9844
223 -96096
222 -357215
221 -190788
220 1056
219 -135988
218 -61033
217 98328
216 -175910
215 -410824
214 -256266
213 -92899
212 50136
211 193797
210 -44568
209 -379866
208 -559292
207 -573785
206 -593628
205 -520606
204 -370446
203 -380558
202 -280588
201 -107024
200 228751
199 428339
198 4495
197 -555975
196 -569595
195 -291706
194 -182905
193 -310458
192 -407592
191 -379594
190 -317181
189 -246439
188 -101956
187 -33485
186 -227559
185 -257860
184 46713
183 -15135
182 -50486
181 53009
180 179150
179 2432
178 -98622
177 -52155
176 142784
175 205422
174 62495
173 -32805
172 137581
171 190156
170 110983
169 -15051
168 -24173
167 57992
166 99883
165 -197330
164 -338789
163 -159062
162 127719
161 354215
160 275358
159 -115646
158 -299257
157 -88764
156 -92153
155 101816
154 -105361
153 -277871
152 -330090
151 -69837
150 294917
149 211544
148 -161817
147 -219032
146 -99479
145 -105193
144 6169
143 316348
142 512977
141 222724
140 -114879
139 29436
138 368971
137 511692
136 466694
135 229914
134 -146983
133 -258728
132 -257636
131 -126731
130 86387
129 116467
128 71408
127 57996
126 219367
125 57921
124 -159516
123 -73629
122 176175
121 380933
120 261468
119 -56326
118 -192868
117 -43481
116 236185
115 399333
114 498843
113 374041
112 -24192
111 -237499
110 -269199
109 -128562
108 -123965
107 -134643
106 -67007
105 -159858
104 -107476
103 218498
102 29131
101 -254588
100 -294225
99 -284280
98 -323618
97 -217027
96 -188477
95 -349180
94 -52363
93 451975
92 287799
91 -72490
90 16125
89 330813
88 261814
87 287376
86 552389
85 584186
84 386920
83 50810
82 -274056
81 -400286
80 -250956
79 -72075
78 45810
77 144511
76 -159330
75 -481747
74 -514330
73 -377406
72 -216253
71 -56350
70 -174254
69 -49866
68 160010
67 118098
66 -117795
65 -93518
64 192362
63 258637
62 -60641
61 -63585
60 221022
59 339730
58 261345
57 -115784
56 -575828
55 -615887
54 -274019
53 302833
52 737496
51 864827
50 499722
49 104082
48 -365934
47 -592452
46 -350841
45 242357
44 312357
43 417530
42 448750
41 339266
40 443921
39 558631
38 458806
37 330643
36 -435901
35 -472211
34 -338045
33 -216580
32 -140089
31 59326
30 90981
29 -345458
28 -477243
27 -94325
26 -38552
25 -387770
24 -335541
23 23334
22 169403
21 -140062
20 -853826
19 -760660
18 -231207
17 303452
16 469374
15 15439
14 -383276
13 -405468
12 -52809
11 56608
10 218543
9 258667
8 79006
7 24973
6 -27272
5 -159200
4 -84196
3 168373
2 275630
1 118122
0 130884
##END NTUPLES=nD NMR SPECTRUM
##END=
