##TITLE=IOC-HACK-Hunscha
Cyclopropylmethylalkohol    12mg
PROTON.AUT CDCl3 {D:\Bruker\TopSpin} AVIII600 1
##JCAMPDX= 6.0         $$ Bruker NMR JCAMP-DX V2.0
##DATA TYPE= NMR SPECTRUM
##DATA CLASS= XYDATA
##ORIGIN= Bruker BioSpin GmbH
##OWNER= AVIII600
##LONG DATE= 2024/10/28 11:49:04+0000
$$ TopSpin 4.1.4
$$ 2024-12-07 16:10:26.327 +0100  Admin@Japetus
$$ Compression mode = diff/dup
##.OBSERVE FREQUENCY= 600.1337058
##.OBSERVE NUCLEUS= ^1H
##.ACQUISITION MODE= SIMULTANEOUS (DQD)
##.ACQUISITION SCHEME= undefined
##.AVERAGES= 16
##.DIGITISER RES= 22
##SPECTROMETER/DATA SYSTEM= spect
##.PULSE SEQUENCE= zg30
##.SOLVENT NAME= CDCl3
##.SHIFT REFERENCE= INTERNAL, CDCl3, 1, 16.18152
##AUDIT TRAIL= $$ (NUMBER, WHEN, WHO, WHERE, PROCESS, VERSION, WHAT)
$$ ##TITLE= Audit trail, TopSpin 3.6.4
$$ ##JCAMPDX= 5.01
$$ ##ORIGIN= Bruker BioSpin GmbH
$$ ##OWNER= AVIII600
$$ $$ D:/Bruker/Topspin/data/AVIII600/nmr/20241028-AVIII600/170/pdata/1/auditp.txt
$$ ##AUDIT TRAIL=  $$ (NUMBER, WHEN, WHO, WHERE, PROCESS, VERSION, WHAT)
(   1,<2024-10-28 12:49:04.421 +0100>,<AVIII600>,<AV3600>,<go4>,<TopSpin 3.6.4>,
      <created by zg on data set with UUID '776abec0-9522-11ef-b82e-3417eba89713'
       started at 2024-10-28 12:47:53.762 +0100,
       POWCHK enabled, PULCHK disabled,
       completed at 2024-10-28 12:49:04.406 +0100
$$ 
       configuration hash MD5:
       23 CC 49 F0 8D AC 86 1C 93 0C F2 9B 65 EE F7 85
       data hash MD5: 64K
       1C C5 5A 96 D0 21 C6 D6 8E 7E C2 4A B7 83 48 CA
>)
(   2,<2024-10-28 12:49:04.593 +0100>,<AVIII600>,<AV3600>,<audit>,<TopSpin 3.6.4>,
      <user comment:
       ICON-NMR User ID: AVIII600
       data hash MD5: 64K
       1C C5 5A 96 D0 21 C6 D6 8E 7E C2 4A B7 83 48 CA>)
(   3,<2024-10-28 12:49:05.874 +0100>,<AVIII600>,<AV3600>,<proc1d>,<TopSpin 3.6.4>,
      <Start of raw data processing
       ef LB = 0.3 FT_mod = 6 PKNL = 1 SI = 64K 
       data hash MD5: 64K
       08 4F A3 EF 07 F3 75 41 48 56 FC 2A 03 07 85 46>)
(   4,<2024-10-28 12:49:07.155 +0100>,<AVIII600>,<AV3600>,<proc1d>,<TopSpin 3.6.4>,
      <apk0 
       data hash MD5: 64K
       8E 20 DD 8D 20 1A 26 C7 9E 1C BE 0A B8 BD C2 3B>)
(   5,<2024-10-28 12:49:07.421 +0100>,<AVIII600>,<AV3600>,<proc1d>,<TopSpin 3.6.4>,
      <abs ABSG = 5 
       data hash MD5: 64K
       E6 34 D3 E1 EB BD 6B 61 CA 5F 4F A1 9A 6A 94 E8>)
$$ $$ Z:/data/Datenbank/Erstellte Datenbank/Cyclopropylmethylalkohol/170/pdata/1/auditp.txt
(   6,<2024-11-07T12:25:06.584+0100>,<Tobias>,<NMR09>,<proc1d>,<TopSpin 4.4.0>,
      <Start of raw data processing
       em LB = 0.3 SI = 64K 
       data hash MD5: 64K
       AF E1 CA 54 6C 48 69 22 93 7A 24 1C B9 41 98 B0>)
(   7,<2024-11-07T12:25:07.803+0100>,<Tobias>,<NMR09>,<proc1d>,<TopSpin 4.4.0>,
      <ft FT_mod = 6 PKNL = 1 SI = 64K 
       data hash MD5: 64K
       ED DA C3 91 DD B0 2F 90 BC 0E 90 92 7E 2D 8D FC>)
(   8,<2024-11-07T12:25:09.276+0100>,<Tobias>,<NMR09>,<proc1d>,<TopSpin 4.4.0>,
      <apk 
       data hash MD5: 64K
       88 EF 1F 34 A4 24 75 6A 38 8F 84 1B 3B EA 3E 8F>)
(   9,<2024-11-07T12:25:10.279+0100>,<Tobias>,<NMR09>,<proc1d>,<TopSpin 4.4.0>,
      <abs n ABSG = 5 
       data hash MD5: 64K
       1F CA D9 90 A7 26 AF 9A E4 1D 83 8C C2 B3 D1 D7>)
(  10,<2024-11-07T12:25:27.149+0100>,<Tobias>,<NMR09>,<dataserver>,<TopSpin 4.4.0>,
      <INTEGRAL DELETE [7.181;6.658]
       data hash MD5: 64K
       1F CA D9 90 A7 26 AF 9A E4 1D 83 8C C2 B3 D1 D7>)
(  11,<2024-11-07T12:25:27.312+0100>,<Tobias>,<NMR09>,<dataserver>,<TopSpin 4.4.0>,
      <INTEGRAL DELETE [4.175;3.677]
       data hash MD5: 64K
       1F CA D9 90 A7 26 AF 9A E4 1D 83 8C C2 B3 D1 D7>)
(  12,<2024-11-07T12:25:27.651+0100>,<Tobias>,<NMR09>,<dataserver>,<TopSpin 4.4.0>,
      <INTEGRAL DELETE [3.677;3.289]
       data hash MD5: 64K
       1F CA D9 90 A7 26 AF 9A E4 1D 83 8C C2 B3 D1 D7>)
(  13,<2024-11-07T12:25:27.952+0100>,<Tobias>,<NMR09>,<dataserver>,<TopSpin 4.4.0>,
      <INTEGRAL DELETE [3.289;3.160]
       data hash MD5: 64K
       1F CA D9 90 A7 26 AF 9A E4 1D 83 8C C2 B3 D1 D7>)
(  14,<2024-11-07T12:25:28.500+0100>,<Tobias>,<NMR09>,<dataserver>,<TopSpin 4.4.0>,
      <INTEGRAL DELETE [3.160;2.959]
       data hash MD5: 64K
       1F CA D9 90 A7 26 AF 9A E4 1D 83 8C C2 B3 D1 D7>)
(  15,<2024-11-07T12:25:28.738+0100>,<Tobias>,<NMR09>,<dataserver>,<TopSpin 4.4.0>,
      <INTEGRAL DELETE [2.309;1.875]
       data hash MD5: 64K
       1F CA D9 90 A7 26 AF 9A E4 1D 83 8C C2 B3 D1 D7>)
(  16,<2024-11-07T12:25:28.938+0100>,<Tobias>,<NMR09>,<dataserver>,<TopSpin 4.4.0>,
      <INTEGRAL DELETE [1.629;1.229]
       data hash MD5: 64K
       1F CA D9 90 A7 26 AF 9A E4 1D 83 8C C2 B3 D1 D7>)
(  17,<2024-11-07T12:25:29.217+0100>,<Tobias>,<NMR09>,<dataserver>,<TopSpin 4.4.0>,
      <INTEGRAL DELETE [1.057;0.795]
       data hash MD5: 64K
       1F CA D9 90 A7 26 AF 9A E4 1D 83 8C C2 B3 D1 D7>)
(  18,<2024-11-07T12:25:29.440+0100>,<Tobias>,<NMR09>,<dataserver>,<TopSpin 4.4.0>,
      <INTEGRAL DELETE [0.794;0.601]
       data hash MD5: 64K
       1F CA D9 90 A7 26 AF 9A E4 1D 83 8C C2 B3 D1 D7>)
(  19,<2024-11-07T12:25:29.772+0100>,<Tobias>,<NMR09>,<dataserver>,<TopSpin 4.4.0>,
      <INTEGRAL DELETE [0.475;0.227]
       data hash MD5: 64K
       1F CA D9 90 A7 26 AF 9A E4 1D 83 8C C2 B3 D1 D7>)
(  20,<2024-11-07T12:25:30.020+0100>,<Tobias>,<NMR09>,<dataserver>,<TopSpin 4.4.0>,
      <INTEGRAL DELETE [0.226;0.080]
       data hash MD5: 64K
       1F CA D9 90 A7 26 AF 9A E4 1D 83 8C C2 B3 D1 D7>)
(  21,<2024-11-07T12:25:30.289+0100>,<Tobias>,<NMR09>,<dataserver>,<TopSpin 4.4.0>,
      <INTEGRAL DELETE [0.079;-0.137]
       data hash MD5: 64K
       1F CA D9 90 A7 26 AF 9A E4 1D 83 8C C2 B3 D1 D7>)
(  22,<2024-11-07T12:25:30.490+0100>,<Tobias>,<NMR09>,<dataserver>,<TopSpin 4.4.0>,
      <INTEGRAL DELETE [-0.138;-0.343]
       data hash MD5: 64K
       1F CA D9 90 A7 26 AF 9A E4 1D 83 8C C2 B3 D1 D7>)
(  23,<2024-11-07T12:25:46.439+0100>,<Tobias>,<NMR09>,<cprserver>,<TopSpin 4.4.0>,
      <changed parameter F1 SR to 0>)
$$ $$ Z:/data/Datenbank/Erstellte Datenbank/Cyclopropylmethylalkohol/170//pdata/1/auditp.txt
(  24,<2024-11-07T12:25:54.362+0100>,<Tobias>,<NMR09>,<sref>,<TopSpin 4.4.0>,
      <sref
       data hash MD5: 64K
       1F CA D9 90 A7 26 AF 9A E4 1D 83 8C C2 B3 D1 D7>)
$$ $$ Z:/data/Datenbank/Erstellte Datenbank/Cyclopropylmethylalkohol/170/pdata/1/auditp.txt
(  25,<2024-11-07T12:26:16.975+0100>,<Tobias>,<NMR09>,<dataserver>,<TopSpin 4.4.0>,
      <Spectrum calibrated, SF was set. Old value: 600.130129 New value: 600.130004. Peak list modified: Yes
       data hash MD5: 64K
       1F CA D9 90 A7 26 AF 9A E4 1D 83 8C C2 B3 D1 D7>)
(  26,<2024-11-07T12:26:17.160+0100>,<Tobias>,<NMR09>,<dataserver>,<TopSpin 4.4.0>,
      <Spectrum calibrated, OFFSET was set. Old value: 15.973380 New value: 16.181518. Peak list modified: Yes
       data hash MD5: 64K
       1F CA D9 90 A7 26 AF 9A E4 1D 83 8C C2 B3 D1 D7>)
(  27,<2024-11-07T12:28:45.425+0100>,<Tobias>,<NMR09>,<proc1d>,<TopSpin 4.4.0>,
      <pk fgphup PHC0 = -0.8 PHC1 = 0 
       data hash MD5: 64K
       F0 11 67 CD DA 78 7B 39 0C 78 77 B8 A4 C1 8C 92>)
(  28,<2024-11-07T12:29:46.591+0100>,<Tobias>,<NMR09>,<dataserver>,<TopSpin 4.4.0>,
      <INTEGRAL DEFINE [3.470;3.418]
       data hash MD5: 64K
       F0 11 67 CD DA 78 7B 39 0C 78 77 B8 A4 C1 8C 92>)
(  29,<2024-11-07T12:29:46.792+0100>,<Tobias>,<NMR09>,<dataserver>,<TopSpin 4.4.0>,
      <INTEGRAL DEFINE [1.148;1.051]
       data hash MD5: 64K
       F0 11 67 CD DA 78 7B 39 0C 78 77 B8 A4 C1 8C 92>)
(  30,<2024-11-07T12:29:47.833+0100>,<Tobias>,<NMR09>,<dataserver>,<TopSpin 4.4.0>,
      <INTEGRAL DELETE [1.148;1.051]
       data hash MD5: 64K
       F0 11 67 CD DA 78 7B 39 0C 78 77 B8 A4 C1 8C 92>)
(  31,<2024-11-07T12:29:48.049+0100>,<Tobias>,<NMR09>,<dataserver>,<TopSpin 4.4.0>,
      <INTEGRAL DEFINE [1.166;1.043]
       data hash MD5: 64K
       F0 11 67 CD DA 78 7B 39 0C 78 77 B8 A4 C1 8C 92>)
(  32,<2024-11-07T12:29:48.365+0100>,<Tobias>,<NMR09>,<dataserver>,<TopSpin 4.4.0>,
      <INTEGRAL DEFINE [0.581;0.480]
       data hash MD5: 64K
       F0 11 67 CD DA 78 7B 39 0C 78 77 B8 A4 C1 8C 92>)
(  33,<2024-11-07T12:29:48.597+0100>,<Tobias>,<NMR09>,<dataserver>,<TopSpin 4.4.0>,
      <INTEGRAL DEFINE [0.266;0.160]
       data hash MD5: 64K
       F0 11 67 CD DA 78 7B 39 0C 78 77 B8 A4 C1 8C 92>)
$$ $$ C:/Users/Admin/Nextcloud/Studium/NMR/Cyclopropylmethylalkohol/170/pdata/1/auditp.txt
(  34,<2024-12-07 16:10:00.164 +0100>,<Admin>,<Japetus>,<dataserver>,<TopSpin 4.1.4>,
      <Start of interactive peak picking
       data hash MD5: 64K
       F0 11 67 CD DA 78 7B 39 0C 78 77 B8 A4 C1 8C 92>)
(  35,<2024-12-07 16:10:04.383 +0100>,<Admin>,<Japetus>,<dataserver>,<TopSpin 4.1.4>,
      <Delete all peak picking regions
       data hash MD5: 64K
       F0 11 67 CD DA 78 7B 39 0C 78 77 B8 A4 C1 8C 92>)
(  36,<2024-12-07 16:10:04.403 +0100>,<Admin>,<Japetus>,<dataserver>,<TopSpin 4.1.4>,
      <End of interactive peak picking
       data hash MD5: 64K
       F0 11 67 CD DA 78 7B 39 0C 78 77 B8 A4 C1 8C 92>)
$$ ##END=
$$ 
$$ $$ hash MD5
$$ $$ F7 4B 12 5B 0E 3F 35 56 1F E1 BC DD D4 2C 9B BD
##$RELAX= 
##$BRUKER FILE EXP=format.temp
$$ EDIT_PAR COMMAND FILE
$$ 
$$ DI_MODE         LONG
$$ ED_ENTRY        ACQU
$$ ORDER           FILE
$$ 
$$ 
$$ HEADER		"F2 - Acquisition Parameters"
$$ T_NAME		Date_
$$ 		TYPE	R64
$$ 		CLASS	ACQU
$$ 		SUBRANGE 0.0 50000000
$$ 		REL	"Date_=itodate(DATE)"
$$ 		INV_REL	"DATE=datetoi(Date_,DATE)"
$$ 		FORMAT	"%14.0f"
$$ 		TEXT	" "
$$ END
$$ T_NAME		Time
$$ 		TYPE	R32
$$ 		CLASS	ACQU
$$ 		SUBRANGE 0.0 1000000
$$ 		REL	"Time=itotime(DATE)"
$$ 		INV_REL	"DATE=timetoi(Time,DATE)"
$$ 		FORMAT	"%14.2f h"
$$ 		TEXT	" "
$$ END
$$ NAME		INSTRUM
$$ 		TEXT	" "
$$ END
$$ NAME		PROBHD
$$ 		FORMAT	"%14.14s"
$$ 		TEXT	" "
$$ END
$$ NAME		PULPROG
$$ 		TEXT	" "
$$ END
$$ NAME		TD
$$ 		TEXT	" "
$$ END
$$ NAME		SOLVENT
$$ 		TEXT	" "
$$ END
$$ NAME		NS
$$ 		TEXT	" "
$$ END
$$ NAME		DS
$$ 		TEXT	" "
$$ END
$$ T_NAME		SWH
$$ 		TYPE	R32
$$ 		CLASS	ACQU
$$ 		SUBRANGE 0.0 1e8
$$ 		REL	"SWH=SW*SFO1"
$$ 		INV_REL "SW=SWH/SFO1"
$$ 		UNIT	"Hz"
$$ 		FORMAT	"%14.3f Hz"
$$ 		TEXT	" "
$$ END
$$ T_NAME          FIDRES
$$                 TYPE    R32
$$                 CLASS   ACQU
$$                 SUBRANGE 0.0 100000
$$                 REL     "FIDRES=2*SW*SFO1/TD"
$$                 INV_REL "TD = nextpow(2*SW*SFO1/FIDRES)"
$$ 		UNIT	"Hz"
$$ 		FORMAT	"%14.6f Hz"
$$ 		TEXT	" "
$$ END
$$ T_NAME          AQ
$$ 		TYPE	R32
$$ 		CLASS	ACQU
$$ 		SUBRANGE 0.0 1000
$$ 		REL	"AQ=aqcalc(SW,SFO1,TD,DIGTYP)"
$$ 		INV_REL	"TD=tdcalc(SW,SFO1,1.0e6*AQ,DIGTYP)"
$$ 		UNIT	"sec"
$$ 		FORMAT	"%14.7f sec"
$$ 		TEXT	" "
$$ END
$$ NAME		RG
$$ 		TEXT	" "
$$ END
$$ T_NAME          DW
$$ 		TYPE	R32
$$ 		CLASS	ACQU
$$ 		SUBRANGE 0.0 1000000
$$ 		REL	"DW=1/(2*SW*SFO1)"
$$ 		INV_REL	"SW=1000000/(2*(0.005+DW)*SFO1)"
$$ 		UNIT	"usec"
$$ 		FORMAT	"%14.3lf usec"
$$ 		TEXT	" "
$$ END
$$ NAME		DE
$$ 		FORMAT	"%14.2f usec"
$$ 		TEXT	" "
$$ END
$$ NAME		TE
$$ 		FORMAT	"%14.1f K"
$$ 		TEXT	" "
$$ END
$$ T_NAME		D1
$$ 		TYPE	R32
$$ 		CLASS	ACQU
$$ 		SUBRANGE 0.0 1e38
$$ 		REL	"D1=D[1]"
$$ 		INV_REL	"D[1]=D1"
$$ 		UNIT	"sec"
$$ 		FORMAT	"%14.8f sec"
$$ 		TEXT	" "
$$ END
$$ NAME		TD0
$$ 		TEXT	" "
$$ END
$$ NAME		SFO1
$$ 		FORMAT	"%14.7f MHz"
$$ 		TEXT	" "
$$ END
$$ NAME		NUC1
$$ 		NONEDIT
$$ 		TEXT	" "
$$ END
$$ T_NAME		P0
$$ 		TYPE	R32
$$ 		CLASS	ACQU
$$ 		SUBRANGE 0.0 1.0e10
$$ 		REL	"P0=P[0]"
$$ 		INV_REL	"P[0]=P0"
$$ 		UNIT	"usec"
$$ 		FORMAT	"%14.2f usec"
$$ 		TEXT	" "
$$ END
$$ T_NAME		P1
$$ 		TYPE	R32
$$ 		CLASS	ACQU
$$ 		SUBRANGE 0.0 1.0e10
$$ 		REL	"P1=P[1]"
$$ 		INV_REL	"P[1]=P1"
$$ 		UNIT	"usec"
$$ 		FORMAT	"%14.2f usec"
$$ 		TEXT	" "
$$ END
$$ T_NAME		PLW1
$$ 		TYPE	R32
$$ 		CLASS	ACQU
$$ 		REL	"PLW1=PLW[1]"
$$ 		INV_REL	"PLW[1]=PLW1"
$$ 		UNIT	"W"
$$ 		FORMAT	"%14.8f W"
$$ 		TEXT	"power PLW1 "
$$ END
##$RELAX= 
##$BRUKER FILE EXP=fq1list
$$ O 600.133706
$$ -5000000
$$ -4968750
$$ -4937500
$$ -4906250
$$ -4875000
$$ -4843750
$$ -4812500
$$ -4781250
$$ -4750000
$$ -4718750
$$ -4687500
$$ -4656250
$$ -4625000
$$ -4593750
$$ -4562500
$$ -4531250
$$ -4500000
$$ -4468750
$$ -4437500
$$ -4406250
$$ -4375000
$$ -4343750
$$ -4312500
$$ -4281250
$$ -4250000
$$ -4218750
$$ -4187500
$$ -4156250
$$ -4125000
$$ -4093750
$$ -4062500
$$ -4031250
$$ -4000000
$$ -3968750
$$ -3937500
$$ -3906250
$$ -3875000
$$ -3843750
$$ -3812500
$$ -3781250
$$ -3750000
$$ -3718750
$$ -3687500
$$ -3656250
$$ -3625000
$$ -3593750
$$ -3562500
$$ -3531250
$$ -3500000
$$ -3468750
$$ -3437500
$$ -3406250
$$ -3375000
$$ -3343750
$$ -3312500
$$ -3281250
$$ -3250000
$$ -3218750
$$ -3187500
$$ -3156250
$$ -3125000
$$ -3093750
$$ -3062500
$$ -3031250
$$ -3000000
$$ -2968750
$$ -2937500
$$ -2906250
$$ -2875000
$$ -2843750
$$ -2812500
$$ -2781250
$$ -2750000
$$ -2718750
$$ -2687500
$$ -2656250
$$ -2625000
$$ -2593750
$$ -2562500
$$ -2531250
$$ -2500000
$$ -2468750
$$ -2437500
$$ -2406250
$$ -2375000
$$ -2343750
$$ -2312500
$$ -2281250
$$ -2250000
$$ -2218750
$$ -2187500
$$ -2156250
$$ -2125000
$$ -2093750
$$ -2062500
$$ -2031250
$$ -2000000
$$ -1968750
$$ -1937500
$$ -1906250
$$ -1875000
$$ -1843750
$$ -1812500
$$ -1781250
$$ -1750000
$$ -1718750
$$ -1687500
$$ -1656250
$$ -1625000
$$ -1593750
$$ -1562500
$$ -1531250
$$ -1500000
$$ -1468750
$$ -1437500
$$ -1406250
$$ -1375000
$$ -1343750
$$ -1312500
$$ -1281250
$$ -1250000
$$ -1218750
$$ -1187500
$$ -1156250
$$ -1125000
$$ -1093750
$$ -1062500
$$ -1031250
$$ -1000000
$$  -992157
$$  -984314
$$  -976471
$$  -968627
$$  -960784
$$  -952941
$$  -945098
$$  -937255
$$  -929412
$$  -921569
$$  -913725
$$  -905882
$$  -898039
$$  -890196
$$  -882353
$$  -874510
$$  -866667
$$  -858824
$$  -850980
$$  -843137
$$  -835294
$$  -827451
$$  -819608
$$  -811765
$$  -803922
$$  -796078
$$  -788235
$$  -780392
$$  -772549
$$  -764706
$$  -756863
$$  -749020
$$  -741176
$$  -733333
$$  -725490
$$  -717647
$$  -709804
$$  -701961
$$  -694118
$$  -686275
$$  -678431
$$  -670588
$$  -662745
$$  -654902
$$  -647059
$$  -639216
$$  -631373
$$  -623529
$$  -615686
$$  -607843
$$  -600000
$$  -592157
$$  -584314
$$  -576471
$$  -568627
$$  -560784
$$  -552941
$$  -545098
$$  -537255
$$  -529412
$$  -521569
$$  -513725
$$  -505882
$$  -498039
$$  -490196
$$  -482353
$$  -474510
$$  -466667
$$  -458824
$$  -450980
$$  -443137
$$  -435294
$$  -427451
$$  -419608
$$  -411765
$$  -403922
$$  -396078
$$  -388235
$$  -380392
$$  -372549
$$  -364706
$$  -356863
$$  -349020
$$  -341176
$$  -333333
$$  -325490
$$  -317647
$$  -309804
$$  -301961
$$  -294118
$$  -286275
$$  -278431
$$  -270588
$$  -262745
$$  -254902
$$  -247059
$$  -239216
$$  -231373
$$  -223529
$$  -215686
$$  -207843
$$  -200000
$$  -192157
$$  -184314
$$  -176471
$$  -168627
$$  -160784
$$  -152941
$$  -145098
$$  -137255
$$  -129412
$$  -121569
$$  -113725
$$  -105882
$$   -98039
$$   -90196
$$   -82353
$$   -74510
$$   -66667
$$   -58824
$$   -50980
$$   -43137
$$   -35294
$$   -27451
$$   -19608
$$   -11765
$$    -3922
$$     3922
$$    11765
$$    19608
$$    27451
$$    35294
$$    43137
$$    50980
$$    58824
$$    66667
$$    74510
$$    82353
$$    90196
$$    98039
$$   105882
$$   113725
$$   121569
$$   129412
$$   137255
$$   145098
$$   152941
$$   160784
$$   168627
$$   176471
$$   184314
$$   192157
$$   200000
$$   207843
$$   215686
$$   223529
$$   231373
$$   239216
$$   247059
$$   254902
$$   262745
$$   270588
$$   278431
$$   286275
$$   294118
$$   301961
$$   309804
$$   317647
$$   325490
$$   333333
$$   341176
$$   349020
$$   356863
$$   364706
$$   372549
$$   380392
$$   388235
$$   396078
$$   403922
$$   411765
$$   419608
$$   427451
$$   435294
$$   443137
$$   450980
$$   458824
$$   466667
$$   474510
$$   482353
$$   490196
$$   498039
$$   505882
$$   513725
$$   521569
$$   529412
$$   537255
$$   545098
$$   552941
$$   560784
$$   568627
$$   576471
$$   584314
$$   592157
$$   600000
$$   607843
$$   615686
$$   623529
$$   631373
$$   639216
$$   647059
$$   654902
$$   662745
$$   670588
$$   678431
$$   686275
$$   694118
$$   701961
$$   709804
$$   717647
$$   725490
$$   733333
$$   741176
$$   749020
$$   756863
$$   764706
$$   772549
$$   780392
$$   788235
$$   796078
$$   803922
$$   811765
$$   819608
$$   827451
$$   835294
$$   843137
$$   850980
$$   858824
$$   866667
$$   874510
$$   882353
$$   890196
$$   898039
$$   905882
$$   913725
$$   921569
$$   929412
$$   937255
$$   945098
$$   952941
$$   960784
$$   968627
$$   976471
$$   984314
$$   992157
$$  1000000
$$  1031250
$$  1062500
$$  1093750
$$  1125000
$$  1156250
$$  1187500
$$  1218750
$$  1250000
$$  1281250
$$  1312500
$$  1343750
$$  1375000
$$  1406250
$$  1437500
$$  1468750
$$  1500000
$$  1531250
$$  1562500
$$  1593750
$$  1625000
$$  1656250
$$  1687500
$$  1718750
$$  1750000
$$  1781250
$$  1812500
$$  1843750
$$  1875000
$$  1906250
$$  1937500
$$  1968750
$$  2000000
$$  2031250
$$  2062500
$$  2093750
$$  2125000
$$  2156250
$$  2187500
$$  2218750
$$  2250000
$$  2281250
$$  2312500
$$  2343750
$$  2375000
$$  2406250
$$  2437500
$$  2468750
$$  2500000
$$  2531250
$$  2562500
$$  2593750
$$  2625000
$$  2656250
$$  2687500
$$  2718750
$$  2750000
$$  2781250
$$  2812500
$$  2843750
$$  2875000
$$  2906250
$$  2937500
$$  2968750
$$  3000000
$$  3031250
$$  3062500
$$  3093750
$$  3125000
$$  3156250
$$  3187500
$$  3218750
$$  3250000
$$  3281250
$$  3312500
$$  3343750
$$  3375000
$$  3406250
$$  3437500
$$  3468750
$$  3500000
$$  3531250
$$  3562500
$$  3593750
$$  3625000
$$  3656250
$$  3687500
$$  3718750
$$  3750000
$$  3781250
$$  3812500
$$  3843750
$$  3875000
$$  3906250
$$  3937500
$$  3968750
$$  4000000
$$  4031250
$$  4062500
$$  4093750
$$  4125000
$$  4156250
$$  4187500
$$  4218750
$$  4250000
$$  4281250
$$  4312500
$$  4343750
$$  4375000
$$  4406250
$$  4437500
$$  4468750
$$  4500000
$$  4531250
$$  4562500
$$  4593750
$$  4625000
$$  4656250
$$  4687500
$$  4718750
$$  4750000
$$  4781250
$$  4812500
$$  4843750
$$  4875000
$$  4906250
$$  4937500
$$  4968750
$$  5000000
##$RELAX= 
##$BRUKER FILE EXP=scon2
$$ ##TITLE= Parameter file, TopSpin 3.6.4
$$ ##JCAMPDX= 5.0
$$ ##DATATYPE= Parameter Values
$$ ##NPOINTS= 1	$$ modification sequence number
$$ ##ORIGIN= Bruker BioSpin GmbH
$$ ##OWNER= AVIII600
$$ $$ 2024-10-28 12:47:53.652 +0100  AVIII600@AV3600
$$ $$ D:/Bruker/Topspin/data/AVIII600/nmr/20241028-AVIII600/170/scon2
$$ $$ process C:\Bruker\TopSpin3.6.4\prog\mod\go4.exe
$$ ##$BLKTR= (0..19)
$$ 3 3 3 3 3 3 3 3 3 3 3 3 3 3 3 3 3 3 3 3
$$ ##$DE1= 4.5
$$ ##$DEADC= 0.5
$$ ##$DEPA= 4.5
$$ ##$DERX= 1.5
$$ ##$FILCOR= 0.84
$$ ##$GRADCHAN= 0
$$ ##$GRADPRE= (0..1)
$$ 10 10
$$ ##$HD_BLKTR= (0..19)
$$ 1 1 1 1 1 1 1 1 1 1 1 1 1 1 1 1 1 1 1 1
$$ ##$HD_DE1= 5
$$ ##$HD_DEADC= 0
$$ ##$HD_DEPA= 2.5
$$ ##$HD_DERX= 0
$$ ##END=
##$RELAX= 
##$BRUKER FILE EXP=prosol_History
##$RELAX= 
##$BRUKER FILE EXP=pulseprogram
$$ # 1 "C:/Bruker/TopSpin3.6.4/exp/stan/nmr/lists/pp/zg30"
$$ ;zg30
$$ ;avance-version (18/04/13)
$$ ;1D sequence
$$ ;using 30 degree flip angle
$$ ;
$$ ;$CLASS=HighRes
$$ ;$DIM=1D
$$ ;$TYPE=
$$ ;$SUBTYPE=
$$ ;$COMMENT=
$$ ;$RECOMMEND=y
$$ 
$$ 
$$ # 1 "C:/Bruker/TopSpin3.6.4/exp/stan/nmr/lists/pp/Avance.incl" 1
$$ ;Avance3.incl
$$ ;   for AV III
$$ ;
$$ ;avance-version (13/06/17)
$$ ;
$$ ;$CLASS=HighRes Incl
$$ ;$COMMENT=
$$ # 169 "C:/Bruker/TopSpin3.6.4/exp/stan/nmr/lists/pp/Avance.incl"
$$ ;$Id: Avance3.incl,v 1.10.2.2 2013/08/30 09:43:33 ber Exp $
$$ # 14 "C:/Bruker/TopSpin3.6.4/exp/stan/nmr/lists/pp/zg30" 2
$$ 
$$ 
$$ # 17 "C:/Bruker/TopSpin3.6.4/exp/stan/nmr/lists/pp/zg30"
$$ "p0=p1/3"
$$ 
$$ 
$$ "acqt0=-tan((p0/p1)*(PI/4))*p1*2/PI"
$$ # 1 "mc_line 23 file C:/Bruker/TopSpin3.6.4/exp/stan/nmr/lists/pp/zg30 exp. def. part of mc cmd. before ze"
$$ ; dimension 1D; AQ_mode 
$$ define delay MCWRK
$$ define delay MCREST
$$ "MCREST = 30m - 30m"
$$ "MCWRK = 0.333333*30m"
$$ 
$$     dccorr
$$ # 23 "C:/Bruker/TopSpin3.6.4/exp/stan/nmr/lists/pp/zg30"
$$ # 23 "C:/Bruker/TopSpin3.6.4/exp/stan/nmr/lists/pp/zg30"
$$ 1 ze
$$ # 1 "mc_line 23 file C:/Bruker/TopSpin3.6.4/exp/stan/nmr/lists/pp/zg30 exp. def. of mc cmd. after ze"
$$ # 24 "C:/Bruker/TopSpin3.6.4/exp/stan/nmr/lists/pp/zg30"
$$ # 1 "mc_line 24 file C:/Bruker/TopSpin3.6.4/exp/stan/nmr/lists/pp/zg30 exp. start label for mc cmd."
$$ 2 MCWRK  * 2
$$ LBLF0, MCWRK
$$   MCREST
$$ # 25 "C:/Bruker/TopSpin3.6.4/exp/stan/nmr/lists/pp/zg30"
$$   d1
$$   p0 ph1
$$   go=2 ph31
$$ # 1 "mc_line 28 file C:/Bruker/TopSpin3.6.4/exp/stan/nmr/lists/pp/zg30 exp. mc cmd. in line"
$$   MCWRK wr #0
$$   MCWRK zd
$$   lo to LBLF0 times td0
$$ 
$$ # 29 "C:/Bruker/TopSpin3.6.4/exp/stan/nmr/lists/pp/zg30"
$$ exit
$$ 
$$ 
$$ ph1=0 2 2 0 1 3 3 1
$$ ph31=0 2 2 0 1 3 3 1
$$ # 36 "C:/Bruker/TopSpin3.6.4/exp/stan/nmr/lists/pp/zg30"
$$ ;pl1 : f1 channel - power level for pulse (default)
$$ ;p1 : f1 channel -  90 degree high power pulse
$$ ;d1 : relaxation delay; 1-5 * T1
$$ ;ns: 1 * n, total number of scans: NS * TD0
$$ 
$$ 
$$ # 43 "C:/Bruker/TopSpin3.6.4/exp/stan/nmr/lists/pp/zg30"
$$ ;$Id: zg30,v 1.12.2.2 2018/04/13 14:28:42 ber Exp $
##$RELAX= 
##$BRUKER FILE EXP=shimvalues
$$ # Mon Oct 28 12:49:04 2024
$$ #$$PROBEIDENTIFIER=Z114607_0100
$$ #$$PROBENAME=PA BBO 600S3 BBF-H-D-05 Z SP
$$ #$$SHIMID=292722
$$ #
$$ # Active Shim Gradients
$$ #
$$ Z           		-5620           
$$ Z2          		5571            
$$ Z3          		185             
$$ Z4          		568             
$$ Z5          		591             
$$ Z6          		-1083           
$$ Z7          		4252            
$$ Z8          		9915            
$$ X           		11147           
$$ XZ          		-3448           
$$ XZ2         		5443            
$$ XZ3         		-4597           
$$ XZ4         		-1052           
$$ XZ5         		-8062           
$$ Y           		10680           
$$ YZ          		4663            
$$ YZ2         		17837           
$$ YZ3         		3756            
$$ YZ4         		2561            
$$ YZ5         		-852            
$$ XY          		-13939          
$$ XYZ         		7981            
$$ XYZ2        		3260            
$$ XYZ3        		111             
$$ XYZ4        		1953            
$$ XYZ5        		140             
$$ (X2-Y2)     		8051            
$$ (X2-Y2)Z    		12052           
$$ (X2-Y2)Z2   		-1446           
$$ (X2-Y2)Z3   		-895            
$$ (X2-Y2)Z4   		1223            
$$ (X2-Y2)Z5   		207             
$$ X3          		6610            
$$ X3Z         		-8815           
$$ Y3          		332             
$$ Y3Z         		-937            
$$ #
$$ # Lock Parameter
$$ #
$$ FIELD		3395.436
$$ LOCKPHASE		141.319 
$$ LOCKPOWER		-30.000 
$$ LOCKGAIN		122.067 
$$ LOCKDC		-75.500 
$$ LOCKSHIFT		7.240   
$$ LOOPGAIN		-12.000 
$$ LOOPTIME		0.400   
$$ LOOPFILTER		100.000 
$$ #
$$ IEEE64_VERSION_CODE 1
$$ #
$$ # Shim currents 
$$ #
$$ SHIM_SETTING [1 ]  -2170.84253109  
$$ SHIM_SETTING [2 ]  1166.38670430   
$$ SHIM_SETTING [3 ]  -2119.37069518  
$$ SHIM_SETTING [4 ]  10508.24721898  
$$ SHIM_SETTING [5 ]  -5011.28319560  
$$ SHIM_SETTING [6 ]  -4187.58323686  
$$ SHIM_SETTING [7 ]  16030.30148412  
$$ SHIM_SETTING [8 ]  6230.37409809   
$$ SHIM_SETTING [9 ]  3224.01556728   
$$ SHIM_SETTING [10]  296.12849462    
$$ SHIM_SETTING [11]  0.00000000      
$$ SHIM_SETTING [12]  1268.85300000   
$$ SHIM_SETTING [13]  -605.33700000   
$$ SHIM_SETTING [14]  7481.23300281   
$$ SHIM_SETTING [15]  4467.63736920   
$$ SHIM_SETTING [16]  25272.38441371  
$$ SHIM_SETTING [17]  9828.53704641   
$$ SHIM_SETTING [18]  7540.05997548   
$$ SHIM_SETTING [19]  -9110.04490776  
$$ SHIM_SETTING [20]  14732.00464832  
$$ SHIM_SETTING [21]  15781.55300917  
$$ SHIM_SETTING [22]  -7122.56998878  
$$ SHIM_SETTING [23]  17017.59098912  
$$ SHIM_SETTING [24]  -1243.56599051  
$$ SHIM_SETTING [25]  6411.00699947   
$$ SHIM_SETTING [26]  2400.39501365   
$$ SHIM_SETTING [27]  -1069.33000040  
$$ SHIM_SETTING [28]  36803.16741168  
$$ SHIM_SETTING [29]  -2861.25301971  
$$ SHIM_SETTING [30]  -6929.64800980  
$$ SHIM_SETTING [31]  -5112.84822717  
$$ SHIM_SETTING [32]  21276.28838912  
$$ SHIM_SETTING [33]  3253.10298063   
$$ SHIM_SETTING [34]  -12955.23801930 
$$ SHIM_SETTING [35]  -12676.70000515 
$$ SHIM_SETTING [36]  -23881.72099154 
$$ SHIM_SETTING [37]  -1023.57184180  
$$ SHIM_SETTING [38]  4233.15957537   
$$ SHIM_SETTING [39]  -1686.94774335  
$$ SHIM_SETTING [40]  0.00000000      
##$RELAX= 
##$BRUKER FILE EXP=uxnmr.par
$$ ##TITLE= Parameter file, TopSpin 3.6.4
$$ ##JCAMPDX= 5.0
$$ ##DATATYPE= Parameter Values
$$ ##NPOINTS= 457	$$ modification sequence number
$$ ##ORIGIN= Bruker BioSpin GmbH
$$ ##OWNER= nmrsu
$$ $$ 2024-10-24 10:17:28.560 +0200  AVIII600@AV3600
$$ $$ C:/Bruker/TopSpin3.6.4/conf/instr/spect/uxnmr.par
$$ $$ process C:\Bruker\TopSpin3.6.4\prog\mod\cfserverav3.exe
$$ ##$ACB= 0
$$ ##$ACBTAT= (0..23)
$$ 0 72 88 50 50 0 0 0 0 0 0 0 0 0 0 0 0 0 0 0 0 0 0 0
$$ ##$ACBTBA= (0..23)
$$ 0 0 0 0 0 0 0 0 0 0 0 0 0 0 0 0 0 0 0 0 0 0 0 0
$$ ##$ACBTBLK= (0..23)
$$ 0 34 33 39 1 0 0 0 0 0 0 0 0 0 0 0 0 0 0 0 0 0 0 0
$$ ##$ACBTCTL= (0..23)
$$ 0 6 6 6 6 0 0 0 0 0 0 0 0 0 0 0 0 0 0 0 0 0 0 0
$$ ##$ACBTDI= (0..23)
$$ 0 -1779670018 -1779670018 -1779670018 -1779670252 0 0 0 0 0 0 0 0 0 0 0
$$ 0 0 0 0 0 0 0 0
$$ ##$ACBTDM= (0..23)
$$ 0 25 10 10 10 0 0 0 0 0 0 0 0 0 0 0 0 0 0 0 0 0 0 0
$$ ##$ACBTFHI= (0..23)
$$ 0 600 365 92 93 0 0 0 0 0 0 0 0 0 0 0 0 0 0 0 0 0 0 0
$$ ##$ACBTFL= (0..23)
$$ 0 248 248 88 8 0 0 0 0 0 0 0 0 0 0 0 0 0 0 0 0 0 0 0
$$ ##$ACBTFLO= (0..23)
$$ 0 180 6 30 91 0 0 0 0 0 0 0 0 0 0 0 0 0 0 0 0 0 0 0
$$ ##$ACBTINP= (0..23)
$$ 0 2 1 7 0 0 0 0 0 0 0 0 0 0 0 0 0 0 0 0 0 0 0 0
$$ ##$ACBTOUT= (0..23)
$$ 0 1 2 3 1 0 0 0 0 0 0 0 0 0 0 0 0 0 0 0 0 0 0 0
$$ ##$ACBTPO= (0..23)
$$ 0 100000 300000 150000 5000 0 0 0 0 0 0 0 0 0 0 0 0 0 0 0 0 0 0 0
$$ ##$ACBTPW= (0..23)
$$ 0 100 100 5 1000 0 0 0 0 0 0 0 0 0 0 0 0 0 0 0 0 0 0 0
$$ ##$ACBTSB= (0..23)
$$ 0 103 99 16 0 0 0 0 0 0 0 0 0 0 0 0 0 0 0 0 0 0 0 0
$$ ##$ACBTSDT= (0..23)
$$ 0 2 2 2 2 0 0 0 0 0 0 0 0 0 0 0 0 0 0 0 0 0 0 0
$$ ##$ACBTY= <no>
$$ ##$AMPDFLT= no
$$ ##$AQSBDCH= (0..95)
$$ 0 0 0 0 0 0 0 0 255 255 255 255 255 255 255 255 255 255 255 255 255 255
$$ 255 255 255 255 255 255 255 255 255 255 255 255 255 255 255 255 255 255
$$ 255 255 255 255 255 255 255 255 255 255 255 255 255 255 255 255 255 255
$$ 255 255 255 255 255 255 255 255 255 255 255 255 255 255 255 255 255 255
$$ 255 255 255 255 255 255 255 255 255 255 255 255 255 255 255 255 255 255
$$ 255 255
$$ ##$AQSBDHW= (0..95)
$$ 5 1 0 0 0 0 0 0 255 255 255 255 255 255 255 255 255 255 255 255 255 255
$$ 255 255 255 255 255 255 255 255 255 255 255 255 255 255 255 255 255 255
$$ 255 255 255 255 255 255 255 255 255 255 255 255 255 255 255 255 255 255
$$ 255 255 255 255 255 255 255 255 255 255 255 255 255 255 255 255 255 255
$$ 255 255 255 255 255 255 255 255 255 255 255 255 255 255 255 255 255 255
$$ 255 255
$$ ##$AQSBDID= (0..95)
$$ 82 88 83 83 86 86 66 66 255 255 255 255 255 255 255 255 255 255 255 255
$$ 255 255 255 255 255 255 255 255 255 255 255 255 255 255 255 255 255 255
$$ 255 255 255 255 255 255 255 255 255 255 255 255 255 255 255 255 255 255
$$ 255 255 255 255 255 255 255 255 255 255 255 255 255 255 255 255 255 255
$$ 255 255 255 255 255 255 255 255 255 255 255 255 255 255 255 255 255 255
$$ 255 255 255 255
$$ ##$AQSBDNO= (0..95)
$$ 1 1 1 2 1 2 1 1 255 255 255 255 255 255 255 255 255 255 255 255 255 255
$$ 255 255 255 255 255 255 255 255 255 255 255 255 255 255 255 255 255 255
$$ 255 255 255 255 255 255 255 255 255 255 255 255 255 255 255 255 255 255
$$ 255 255 255 255 255 255 255 255 255 255 255 255 255 255 255 255 255 255
$$ 255 255 255 255 255 255 255 255 255 255 255 255 255 255 255 255 255 255
$$ 255 255
$$ ##$AQSBDSL= (0..95)
$$ 2 3 4 4 13 14 255 1 255 255 255 255 255 255 255 255 255 255 255 255 255
$$ 255 255 255 255 255 255 255 255 255 255 255 255 255 255 255 255 255 255
$$ 255 255 255 255 255 255 255 255 255 255 255 255 255 255 255 255 255 255
$$ 255 255 255 255 255 255 255 255 255 255 255 255 255 255 255 255 255 255
$$ 255 255 255 255 255 255 255 255 255 255 255 255 255 255 255 255 255 255
$$ 255 255 255
$$ ##$AQSBDTY= (0..95)
$$ 67 214 50 50 147 145 216 7 255 255 255 255 255 255 255 255 255 255 255
$$ 255 255 255 255 255 255 255 255 255 255 255 255 255 255 255 255 255 255
$$ 255 255 255 255 255 255 255 255 255 255 255 255 255 255 255 255 255 255
$$ 255 255 255 255 255 255 255 255 255 255 255 255 255 255 255 255 255 255
$$ 255 255 255 255 255 255 255 255 255 255 255 255 255 255 255 255 255 255
$$ 255 255 255 255 255
$$ ##$AQSBUAD= (0..95)
$$ 16 52 36 37 160 161 32 32 255 255 255 255 255 255 255 255 255 255 255 255
$$ 255 255 255 255 255 255 255 255 255 255 255 255 255 255 255 255 255 255
$$ 255 255 255 255 255 255 255 255 255 255 255 255 255 255 255 255 255 255
$$ 255 255 255 255 255 255 255 255 255 255 255 255 255 255 255 255 255 255
$$ 255 255 255 255 255 255 255 255 255 255 255 255 255 255 255 255 255 255
$$ 255 255 255 255
$$ ##$AQSECL= (0..95)
$$ 0 2 2 2 0 1 1 255 255 255 255 255 255 255 255 255 255 255 255 255 255 255
$$ 255 255 255 255 255 255 255 255 255 255 255 255 255 255 255 255 255 255
$$ 255 255 255 255 255 255 255 255 255 255 255 255 255 255 255 255 255 255
$$ 255 255 255 255 255 255 255 255 255 255 255 255 255 255 255 255 255 255
$$ 255 255 255 255 255 255 255 255 255 255 255 255 255 255 255 255 255 255
$$ 255 255
$$ ##$AQSECLS= (0..95)
$$ 1 0 0 0 0 1 1 255 255 255 255 255 255 255 255 255 255 255 255 255 255 255
$$ 255 255 255 255 255 255 255 255 255 255 255 255 255 255 255 255 255 255
$$ 255 255 255 255 255 255 255 255 255 255 255 255 255 255 255 255 255 255
$$ 255 255 255 255 255 255 255 255 255 255 255 255 255 255 255 255 255 255
$$ 255 255 255 255 255 255 255 255 255 255 255 255 255 255 255 255 255 255
$$ 255 255
$$ ##$AQSETH1= <no>
$$ ##$AQSETH2= <no>
$$ ##$AQSSPLT= no
$$ ##$ATT19F= (0..1)
$$ 0 0
$$ ##$ATT1H= (0..1)
$$ 0 0
$$ ##$ATT3H= (0..1)
$$ 0 0
$$ ##$ATTX= (0..1)
$$ 0 0
$$ ##$ATTY= (0..1)
$$ 0 0
$$ ##$ATTZ= (0..1)
$$ 0 0
$$ ##$BACSAIR= yes
$$ ##$BACSCAP= 16
$$ ##$BACSDEL= 10
$$ ##$BACSFCM= no
$$ ##$BACSOPT= <>
$$ ##$BACSTY= <tty04>
$$ ##$BARPTY= <no>
$$ ##$BFREQ= 600.13
$$ ##$BGAETH= (0..9)
$$ <no> <no> <no> <no> <no> <no> <no> <no> <no> <no>
$$ ##$BIRDS= yes
$$ ##$BMPC= 0
$$ ##$BMPCTY= <no>
$$ ##$BPSUTY= <no>
$$ ##$BSMS= 2
$$ ##$BSMS19FLock= no
$$ ##$BSMSETH= <149.236.99.20>
$$ ##$BSMSTY= <no>
$$ ##$BgaChFac2= (0..7)
$$ 0 0 0 0 0 0 0 0
$$ ##$BgaChMap= (0..7)
$$ 0 0 0 0 0 0 0 0
$$ ##$BgaChMaxv= (0..7)
$$ 0 0 0 0 0 0 0 0
$$ ##$BgaChRouting= (0..63)
$$ 0 0 0 0 0 0 0 0 0 0 0 0 0 0 0 0 0 0 0 0 0 0 0 0 0 0 0 0 0 0 0 0 0 0 0 0
$$ 0 0 0 0 0 0 0 0 0 0 0 0 0 0 0 0 0 0 0 0 0 0 0 0 0 0 0 0
$$ ##$BgaChShimMap= (0..7)
$$ 0 0 0 0 0 0 0 0
$$ ##$BgaChShimMaxv= (0..7)
$$ 0 0 0 0 0 0 0 0
$$ ##$Bla01Eth= <149.236.99.254>
$$ ##$Bla01Nam= <BLAXH2H300/100/150 E 200-600MHZ>
$$ ##$Bla01PN= <W1345096>
$$ ##$Bla01SN= <0917>
$$ ##$Bla02Eth= <149.236.99.20>
$$ ##$Bla02Nam= <BSMS/2 LOCK TRANSCEIVER 600>
$$ ##$Bla02PN= <Z109890>
$$ ##$Bla02SN= <00308>
$$ ##$Bla03Eth= <no>
$$ ##$Bla03Nam= <>
$$ ##$Bla03PN= <>
$$ ##$Bla03SN= <>
$$ ##$Bla04Eth= <no>
$$ ##$Bla04Nam= <>
$$ ##$Bla04PN= <>
$$ ##$Bla04SN= <>
$$ ##$Bla05Eth= <no>
$$ ##$Bla05Nam= <>
$$ ##$Bla05PN= <>
$$ ##$Bla05SN= <>
$$ ##$Bla06Eth= <no>
$$ ##$Bla06Nam= <>
$$ ##$Bla06PN= <>
$$ ##$Bla06SN= <>
$$ ##$Bla07Eth= <no>
$$ ##$Bla07Nam= <>
$$ ##$Bla07PN= <>
$$ ##$Bla07SN= <>
$$ ##$Bla08Eth= <no>
$$ ##$Bla08Nam= <>
$$ ##$Bla08PN= <>
$$ ##$Bla08SN= <>
$$ ##$BlaEth= (0..9)
$$ <149.236.99.254> <149.236.99.20> <no> <no> <no> <no> <no> <no> <> <>
$$ ##$BlaNam= (0..9)
$$ <BLAXH2H300/100/150 E 200-600MHZ BSMS/2 LOCK TRANSCEIVER 600> <BSMS/2 LOCK TRANSCEIVER 600>
$$ <> <> <> <> <> <> <> <>
$$ ##$BlaPN= (0..9)
$$ <W1345096> <Z109890> <> <> <> <> <> <> <> <>
$$ ##$BlaSN= (0..9)
$$ <0917> <00308> <> <> <> <> <> <> <> <>
$$ ##$BsmsAuxEth= <no>
$$ ##$CFASMOD= (0..7)
$$ 1 1 1 1 1 1 1 1
$$ ##$CFASMUL= (0..7)
$$ 1 1 1 1 1 1 1 1
$$ ##$CNFTXDR= (0..7)
$$ 6 6 0 0 0 0 0 0
$$ ##$COMDIG2= 0
$$ ##$CPDBTY= <no>
$$ ##$CRCOTY= <no>
$$ ##$CSW1= (0..31)
$$ 2 2 0 7 0 0 0 0 0 0 0 0 0 0 0 0 0 0 0 0 0 0 0 0 0 0 0 0 0 0 0 0
$$ ##$CSW2= (0..31)
$$ 1 1 0 0 0 0 0 0 0 0 0 0 0 0 0 0 0 0 0 0 0 0 0 0 0 0 0 0 0 0 0 0
$$ ##$CSWNUM= (0..7)
$$ 4 1 0 0 0 0 0 0
$$ ##$ConsolePnSn= <>
$$ ##$CryoCoolUnitEth= <no>
$$ ##$CryoProAccPnSn= <>
$$ ##$Ctb1Eth= <no>
$$ ##$CubeEth= (0..7)
$$ <no> <no> <no> <no> <no> <no> <no> <no>
$$ ##$CustRegisterNo= <>
$$ ##$DATSTAT= no
$$ ##$DIGI140= (0..7)
$$ 0 0 0 0 0 0 0 0
$$ ##$DIGIB12= (0..7)
$$ 0 0 0 0 0 0 0 0
$$ ##$DIGIB16= (0..7)
$$ 0 0 0 0 0 0 0 0
$$ ##$DIGIFA= (0..7)
$$ 0 0 0 0 0 0 0 0
$$ ##$DIGIFOURIER= 0
$$ ##$DIGIHA= (0..7)
$$ 0 0 0 0 0 0 0 0
$$ ##$DIGIHAF= (0..7)
$$ 0 0 0 0 0 0 0 0
$$ ##$DIGIHRD= (0..7)
$$ 0 0 0 0 0 0 0 0
$$ ##$DIGIIA= (0..7)
$$ 0 0 0 0 0 0 0 0
$$ ##$DIGIO16= (0..7)
$$ 0 0 0 0 0 0 0 0
$$ ##$DIGISA= (0..7)
$$ 0 0 0 0 0 0 0 0
$$ ##$DIGISAF= (0..7)
$$ 0 0 0 0 0 0 0 0
$$ ##$DIGISL= (0..7)
$$ 0 0 0 0 0 0 0 0
$$ ##$DIGITYI= (0..7)
$$ 0 0 0 0 0 0 0 0
$$ ##$DIGITYP= (0..7)
$$ 0 0 0 0 0 0 0 0
$$ ##$DIGITZ= 0
$$ ##$DPPFAC= 1
$$ ##$DRMSETH= <no>
$$ ##$DRU= yes
$$ ##$DRUETH= (0..33)
$$ <no> <149.236.99.89> <no> <no> <no> <no> <no> <no> <no> <no> <no> <no>
$$ <no> <no> <no> <no> <no> <no> <no> <no> <no> <no> <no> <no> <no> <no> <no>
$$ <no> <no> <no> <no> <no> <no> <no>
$$ ##$Description= <Avance III 600 HD>
$$ ##$DppType= 0
$$ ##$FCUMEM= (0..7)
$$ 16777208 16777208 0 0 0 0 0 0
$$ ##$FCUPAL= (0..7)
$$ 0 0 0 0 0 0 0 0
$$ ##$FGSVTY= <no>
$$ ##$FQMIX= 0
$$ ##$FUNCMOD= <>
$$ ##$FourPeriBdEth= <no>
$$ ##$FourShimBdEth= <no>
$$ ##$FourierPicsCon= no
$$ ##$GCUTYPE= 10
$$ ##$GCUTYPE2= 0
$$ ##$GPREDEL= 0
$$ ##$GPSCUTY= <no>
$$ ##$GRADRES= 5
$$ ##$GTUTY= <no>
$$ ##$GcConn= (0..1)
$$ 1 0
$$ ##$GradAmpGain= (0..7)
$$ 0 0 0 0 0 0 0 0
$$ ##$GradAmpMaxCurX= (0..7)
$$ 0 0 0 0 0 0 0 0
$$ ##$GradAmpMaxCurY= (0..7)
$$ 0 0 0 0 0 0 0 0
$$ ##$GradAmpMaxCurZ= (0..7)
$$ 9.99999904632568 0 0 0 0 0 0 0
$$ ##$GradAmpName= (0..7)
$$ <GAB in BSMS> <> <> <> <> <> <> <>
$$ ##$GradAmpPN= (0..7)
$$ <> <> <> <> <> <> <> <>
$$ ##$GradAmpSN= (0..7)
$$ <> <> <> <> <> <> <> <>
$$ ##$GradAmpType= (0..7)
$$ 2 0 0 0 0 0 0 0
$$ ##$GradPowClkCtrl= 0
$$ ##$GradPowClkTime= 0
$$ ##$GradPowImax= 0
$$ ##$GradPowType= 0
$$ ##$GradPowVmax= 0
$$ ##$HDIETH= (0..5)
$$ <no> <no> <no> <no> <no> <no>
$$ ##$HFAC= 3
$$ ##$HPCU= 0
$$ ##$HPCUTY= <no>
$$ ##$HPTXLP= (0..3)
$$ -1 -1 -1 -1
$$ ##$HPTXPI= (0..3)
$$ 0 0 0 0
$$ ##$HPTXPO= (0..3)
$$ 0 0 0 0
$$ ##$HPTXTY= (0..3)
$$ 0 0 0 0
$$ ##$HpprCoverType= 2
$$ ##$IF451= 0
$$ ##$IFREQ= 1
$$ ##$INJPTY= <no>
$$ ##$INTFPR= 0
$$ ##$IPSOETH= <149.236.99.253>
$$ ##$IPSOTYPE= 1
$$ ##$LDUETH= <no>
$$ ##$LOCKCONF= <DLMT>
$$ ##$LOCKTY= <no>
$$ ##$LOCSWID= 0
$$ ##$LOCSWIF= 0
$$ ##$LVDSSPLITETH= (0..5)
$$ <no> <no> <no> <no> <no> <no>
$$ ##$Location= <Uni Hamburg>
$$ ##$LtMasEth= <no>
$$ ##$LtMasType= 0
$$ ##$M2FAC= 0
$$ ##$MAS= 0
$$ ##$MASETIME= 10
$$ ##$MASITIME= 10
$$ ##$MASTY= <no>
$$ ##$MAS_CT= 5
$$ ##$MAS_SG= 0
$$ ##$MAS_TO= 0
$$ ##$MEMPRM= 0
$$ ##$MHFAC= 0
$$ ##$MXFAC= 0
$$ ##$MagnCoilPnSn= <>
$$ ##$MagnDewarPnSn= <>
$$ ##$MasEth= <no>
$$ ##$NAMPD= (0..17)
$$ <> <HPLNA 19F1H> <2H> <XBB19F 2HS> <> <> <> <> <> <> <> <> <> <> <> <>
$$ <> <>
$$ ##$NFCU= 2
$$ ##$NFRED= 0
$$ ##$NMRCH= 2
$$ ##$NMRMEM= 16384
$$ ##$NPSGU= 0
$$ ##$NRCU= 1
$$ ##$NROUT= 0
$$ ##$NSGU= 2
$$ ##$OrderNo= <10073814>
$$ ##$PAMPF1= (0..15)
$$ 75 56 96 64 0 0 0 0 0 0 0 0 0 0 0 0
$$ ##$PAMPF2= (0..15)
$$ 0 0 0 0 0 0 0 0 0 0 0 0 0 0 0 0
$$ ##$PAMPF3= (0..15)
$$ 0 0 0 0 0 0 0 0 0 0 0 0 0 0 0 0
$$ ##$PAMPF4= (0..15)
$$ 0 0 0 0 0 0 0 0 0 0 0 0 0 0 0 0
$$ ##$PAMPF5= (0..15)
$$ 0 0 0 0 0 0 0 0 0 0 0 0 0 0 0 0
$$ ##$PAMPF6= (0..15)
$$ 0 0 0 0 0 0 0 0 0 0 0 0 0 0 0 0
$$ ##$PAMPF7= (0..15)
$$ 0 0 0 0 0 0 0 0 0 0 0 0 0 0 0 0
$$ ##$PAMPF8= (0..15)
$$ 0 0 0 0 0 0 0 0 0 0 0 0 0 0 0 0
$$ ##$PH4= 0
$$ ##$PHF4TY= <no>
$$ ##$POWCHK= yes
$$ ##$PRAMD1= (0..7)
$$ 6 0 0 1610612736 0 0 0 0
$$ ##$PRAMD10= (0..7)
$$ 0 0 0 0 0 0 0 0
$$ ##$PRAMD11= (0..7)
$$ 0 0 0 0 0 0 0 0
$$ ##$PRAMD12= (0..7)
$$ 0 0 0 0 0 0 0 0
$$ ##$PRAMD13= (0..7)
$$ 0 0 0 0 0 0 0 0
$$ ##$PRAMD14= (0..7)
$$ 0 0 0 0 0 0 0 0
$$ ##$PRAMD15= (0..7)
$$ 0 0 0 0 0 0 0 0
$$ ##$PRAMD16= (0..7)
$$ 0 0 0 0 0 0 0 0
$$ ##$PRAMD17= (0..7)
$$ 0 0 0 0 0 0 0 0
$$ ##$PRAMD18= (0..7)
$$ 0 0 0 0 0 0 0 0
$$ ##$PRAMD19= (0..7)
$$ 0 0 0 0 0 0 0 0
$$ ##$PRAMD2= (0..7)
$$ 0 1048576 0 536870912 0 1048576 0 536870912
$$ ##$PRAMD20= (0..7)
$$ 0 0 0 0 0 0 0 0
$$ ##$PRAMD21= (0..7)
$$ 0 0 0 0 0 0 0 0
$$ ##$PRAMD3= (0..7)
$$ 2147483644 2131230719 2147483647 603979775 0 0 0 0
$$ ##$PRAMD4= (0..7)
$$ 0 0 0 0 0 0 0 0
$$ ##$PRAMD5= (0..7)
$$ 0 0 0 0 0 0 0 0
$$ ##$PRAMD6= (0..7)
$$ 0 0 0 0 0 0 0 0
$$ ##$PRAMD7= (0..7)
$$ 0 0 0 0 0 0 0 0
$$ ##$PRAMD8= (0..7)
$$ 0 0 0 0 0 0 0 0
$$ ##$PRAMD9= (0..7)
$$ 0 0 0 0 0 0 0 0
$$ ##$PRAMLED= (0..1)
$$ 0 0
$$ ##$PRAMP= (0..9)
$$ <00000000> <tty10> <no> <no> <no> <no> <no> <no> <no> <00000000>
$$ ##$PRAMPTP= 1
$$ ##$PREEMPTYPE= 0
$$ ##$PREPTY= <no>
$$ ##$PREREC= (0..15)
$$ 0 1 1 1 0 0 0 0 0 0 0 0 0 0 0 0
$$ ##$PRESHLD= 0
$$ ##$PTS160= -1
$$ ##$PTSA2X= (0..7)
$$ 0 0 0 0 0 0 0 0
$$ ##$PTSF2X= (0..7)
$$ 0 0 0 0 0 0 0 0
$$ ##$PTSFMX= (0..19)
$$ 649.9 649.9 0 0 0 0 0 0 0 0 0 0 0 0 0 0 0 0 0 0
$$ ##$PULCHK= no
$$ ##$PerMagATempSens= no
$$ ##$PerMagEth= <no>
$$ ##$PerMagFluxSens= no
$$ ##$PerMagMTempSens= no
$$ ##$PramDutyCycPerc= (0..15)
$$ 4 2 2 0 0 0 0 0 0 0 0 0 0 0 0 0
$$ ##$PramPeakPowerW= (0..15)
$$ 4000 500 500 0 0 0 0 0 0 0 0 0 0 0 0 0
$$ ##$PramPowerDetect= (0..15)
$$ 1 0 0 0 0 0 0 0 0 0 0 0 0 0 0 0
$$ ##$PramPowerSwitch= (0..15)
$$ 0 0 0 0 0 0 0 0 0 0 0 0 0 0 0 0
$$ ##$PramPulWidthMs= (0..15)
$$ 10 0.1 0.1 0 0 0 0 0 0 0 0 0 0 0 0 0
$$ ##$PreampMod01PN= <Z103205>
$$ ##$PreampMod01SN= <00143>
$$ ##$PreampMod02PN= <Z003473>
$$ ##$PreampMod02SN= <00954>
$$ ##$PreampMod03PN= <Z003506>
$$ ##$PreampMod03SN= <01129>
$$ ##$PreampMod04PN= <>
$$ ##$PreampMod04SN= <>
$$ ##$PreampMod05PN= <>
$$ ##$PreampMod05SN= <>
$$ ##$PreampMod06PN= <>
$$ ##$PreampMod06SN= <>
$$ ##$PreampMod07PN= <>
$$ ##$PreampMod07SN= <>
$$ ##$PreampMod08PN= <>
$$ ##$PreampMod08SN= <>
$$ ##$PreampMod09PN= <>
$$ ##$PreampMod09SN= <>
$$ ##$PreampMod10PN= <>
$$ ##$PreampMod10SN= <>
$$ ##$PreampMod11PN= <>
$$ ##$PreampMod11SN= <>
$$ ##$PreampMod12PN= <>
$$ ##$PreampMod12SN= <>
$$ ##$PreampMod13PN= <>
$$ ##$PreampMod13SN= <>
$$ ##$PreampMod14PN= <>
$$ ##$PreampMod14SN= <>
$$ ##$PreampMod15PN= <>
$$ ##$PreampMod15SN= <>
$$ ##$PreampMod16PN= <>
$$ ##$PreampMod16SN= <>
$$ ##$PreampModBisDat= (0..15)
$$ 20120822 20120803 20120818 0 0 0 0 0 0 0 0 0 0 0 0 0
$$ ##$PreampModPN= (0..17)
$$ <Z103205> <Z003473> <Z003506> <> <> <> <> <> <> <> <> <> <> <> <> <> <>
$$ <>
$$ ##$PreampModSN= (0..17)
$$ <00143> <00954> <01129> <> <> <> <> <> <> <> <> <> <> <> <> <> <> <>
$$ ##$ProdigyEth= <no>
$$ ##$RCUCDS= (0..7)
$$ 0 0 0 0 0 0 0 0
$$ ##$RCUCFS= (0..7)
$$ 0 0 0 0 0 0 0 0
$$ ##$RCUCSS= (0..7)
$$ 0 0 0 0 0 0 0 0
$$ ##$RCUI2C1= (0..7)
$$ 0 0 0 0 0 0 0 0
$$ ##$RCUI2C2= (0..7)
$$ 0 0 0 0 0 0 0 0
$$ ##$RCUI2C3= (0..7)
$$ 0 0 0 0 0 0 0 0
$$ ##$RCUI2C4= (0..7)
$$ 0 0 0 0 0 0 0 0
$$ ##$RCUI2C5= (0..7)
$$ 0 0 0 0 0 0 0 0
$$ ##$RCUI2C6= (0..7)
$$ 0 0 0 0 0 0 0 0
$$ ##$RCUI2C7= (0..7)
$$ 0 0 0 0 0 0 0 0
$$ ##$RCUI2C8= (0..7)
$$ 0 0 0 0 0 0 0 0
$$ ##$RDCU= 0
$$ ##$RFSINPUT= (0..1)
$$ 0 0
$$ ##$RFSVTY= <no>
$$ ##$RGTYPE= (0..31)
$$ 9 0 0 0 0 0 0 0 0 0 0 0 0 0 0 0 0 0 0 0 0 0 0 0 0 0 0 0 0 0 0 0
$$ ##$RG_max= (0..31)
$$ 2050 -1 -1 -1 -1 -1 -1 -1 -1 -1 -1 -1 -1 -1 -1 -1 -1 -1 -1 -1 -1 -1 -1
$$ -1 -1 -1 -1 -1 -1 -1 -1 -1
$$ ##$RG_min= (0..31)
$$ 0.25 -1 -1 -1 -1 -1 -1 -1 -1 -1 -1 -1 -1 -1 -1 -1 -1 -1 -1 -1 -1 -1 -1
$$ -1 -1 -1 -1 -1 -1 -1 -1 -1
$$ ##$RG_tab1= (0..255)
$$ 0.25 0.28 0.32 0.35 0.4 0.44 0.5 0.56 0.64 0.7 0.8 0.89 1 1.12 1.28 1.4
$$ 1.6 1.78 2 2.25 2.56 2.8 3.2 3.56 4 4.5 5 5.6 6.35 7.12 8 9 10 11.3 12.7
$$ 14.2 16 18 20.2 22.6 25.4 28.5 32 36 40.3 45.2 50.8 57 64 71.8 80.6 90.5
$$ 101 114 128 144 161 181 203 228 256 287 322 362 406 456 512 575 645 724
$$ 812 912 1030 1150 1290 1440 1620 1820 2050 -1 -1 -1 -1 -1 -1 -1 -1 -1 -1
$$ -1 -1 -1 -1 -1 -1 -1 -1 -1 -1 -1 -1 -1 -1 -1 -1 -1 -1 -1 -1 -1 -1 -1 -1
$$ -1 -1 -1 -1 -1 -1 -1 -1 -1 -1 -1 -1 -1 -1 -1 -1 -1 -1 -1 -1 -1 -1 -1 -1
$$ -1 -1 -1 -1 -1 -1 -1 -1 -1 -1 -1 -1 -1 -1 -1 -1 -1 -1 -1 -1 -1 -1 -1 -1
$$ -1 -1 -1 -1 -1 -1 -1 -1 -1 -1 -1 -1 -1 -1 -1 -1 -1 -1 -1 -1 -1 -1 -1 -1
$$ -1 -1 -1 -1 -1 -1 -1 -1 -1 -1 -1 -1 -1 -1 -1 -1 -1 -1 -1 -1 -1 -1 -1 -1
$$ -1 -1 -1 -1 -1 -1 -1 -1 -1 -1 -1 -1 -1 -1 -1 -1 -1 -1 -1 -1 -1 -1 -1 -1
$$ -1 -1 -1 -1 -1 -1 -1 -1 -1 -1 -1 -1 -1 -1 -1 -1 -1 -1 -1 -1 -1 -1 -1
$$ ##$RG_tab2= (0..255)
$$ -1 -1 -1 -1 -1 -1 -1 -1 -1 -1 -1 -1 -1 -1 -1 -1 -1 -1 -1 -1 -1 -1 -1 -1
$$ -1 -1 -1 -1 -1 -1 -1 -1 -1 -1 -1 -1 -1 -1 -1 -1 -1 -1 -1 -1 -1 -1 -1 -1
$$ -1 -1 -1 -1 -1 -1 -1 -1 -1 -1 -1 -1 -1 -1 -1 -1 -1 -1 -1 -1 -1 -1 -1 -1
$$ -1 -1 -1 -1 -1 -1 -1 -1 -1 -1 -1 -1 -1 -1 -1 -1 -1 -1 -1 -1 -1 -1 -1 -1
$$ -1 -1 -1 -1 -1 -1 -1 -1 -1 -1 -1 -1 -1 -1 -1 -1 -1 -1 -1 -1 -1 -1 -1 -1
$$ -1 -1 -1 -1 -1 -1 -1 -1 -1 -1 -1 -1 -1 -1 -1 -1 -1 -1 -1 -1 -1 -1 -1 -1
$$ -1 -1 -1 -1 -1 -1 -1 -1 -1 -1 -1 -1 -1 -1 -1 -1 -1 -1 -1 -1 -1 -1 -1 -1
$$ -1 -1 -1 -1 -1 -1 -1 -1 -1 -1 -1 -1 -1 -1 -1 -1 -1 -1 -1 -1 -1 -1 -1 -1
$$ -1 -1 -1 -1 -1 -1 -1 -1 -1 -1 -1 -1 -1 -1 -1 -1 -1 -1 -1 -1 -1 -1 -1 -1
$$ -1 -1 -1 -1 -1 -1 -1 -1 -1 -1 -1 -1 -1 -1 -1 -1 -1 -1 -1 -1 -1 -1 -1 -1
$$ -1 -1 -1 -1 -1 -1 -1 -1 -1 -1 -1 -1 -1 -1 -1 -1
$$ ##$RG_tab3= (0..255)
$$ -1 -1 -1 -1 -1 -1 -1 -1 -1 -1 -1 -1 -1 -1 -1 -1 -1 -1 -1 -1 -1 -1 -1 -1
$$ -1 -1 -1 -1 -1 -1 -1 -1 -1 -1 -1 -1 -1 -1 -1 -1 -1 -1 -1 -1 -1 -1 -1 -1
$$ -1 -1 -1 -1 -1 -1 -1 -1 -1 -1 -1 -1 -1 -1 -1 -1 -1 -1 -1 -1 -1 -1 -1 -1
$$ -1 -1 -1 -1 -1 -1 -1 -1 -1 -1 -1 -1 -1 -1 -1 -1 -1 -1 -1 -1 -1 -1 -1 -1
$$ -1 -1 -1 -1 -1 -1 -1 -1 -1 -1 -1 -1 -1 -1 -1 -1 -1 -1 -1 -1 -1 -1 -1 -1
$$ -1 -1 -1 -1 -1 -1 -1 -1 -1 -1 -1 -1 -1 -1 -1 -1 -1 -1 -1 -1 -1 -1 -1 -1
$$ -1 -1 -1 -1 -1 -1 -1 -1 -1 -1 -1 -1 -1 -1 -1 -1 -1 -1 -1 -1 -1 -1 -1 -1
$$ -1 -1 -1 -1 -1 -1 -1 -1 -1 -1 -1 -1 -1 -1 -1 -1 -1 -1 -1 -1 -1 -1 -1 -1
$$ -1 -1 -1 -1 -1 -1 -1 -1 -1 -1 -1 -1 -1 -1 -1 -1 -1 -1 -1 -1 -1 -1 -1 -1
$$ -1 -1 -1 -1 -1 -1 -1 -1 -1 -1 -1 -1 -1 -1 -1 -1 -1 -1 -1 -1 -1 -1 -1 -1
$$ -1 -1 -1 -1 -1 -1 -1 -1 -1 -1 -1 -1 -1 -1 -1 -1
$$ ##$RG_tab4= (0..255)
$$ -1 -1 -1 -1 -1 -1 -1 -1 -1 -1 -1 -1 -1 -1 -1 -1 -1 -1 -1 -1 -1 -1 -1 -1
$$ -1 -1 -1 -1 -1 -1 -1 -1 -1 -1 -1 -1 -1 -1 -1 -1 -1 -1 -1 -1 -1 -1 -1 -1
$$ -1 -1 -1 -1 -1 -1 -1 -1 -1 -1 -1 -1 -1 -1 -1 -1 -1 -1 -1 -1 -1 -1 -1 -1
$$ -1 -1 -1 -1 -1 -1 -1 -1 -1 -1 -1 -1 -1 -1 -1 -1 -1 -1 -1 -1 -1 -1 -1 -1
$$ -1 -1 -1 -1 -1 -1 -1 -1 -1 -1 -1 -1 -1 -1 -1 -1 -1 -1 -1 -1 -1 -1 -1 -1
$$ -1 -1 -1 -1 -1 -1 -1 -1 -1 -1 -1 -1 -1 -1 -1 -1 -1 -1 -1 -1 -1 -1 -1 -1
$$ -1 -1 -1 -1 -1 -1 -1 -1 -1 -1 -1 -1 -1 -1 -1 -1 -1 -1 -1 -1 -1 -1 -1 -1
$$ -1 -1 -1 -1 -1 -1 -1 -1 -1 -1 -1 -1 -1 -1 -1 -1 -1 -1 -1 -1 -1 -1 -1 -1
$$ -1 -1 -1 -1 -1 -1 -1 -1 -1 -1 -1 -1 -1 -1 -1 -1 -1 -1 -1 -1 -1 -1 -1 -1
$$ -1 -1 -1 -1 -1 -1 -1 -1 -1 -1 -1 -1 -1 -1 -1 -1 -1 -1 -1 -1 -1 -1 -1 -1
$$ -1 -1 -1 -1 -1 -1 -1 -1 -1 -1 -1 -1 -1 -1 -1 -1
$$ ##$RG_tab5= (0..255)
$$ -1 -1 -1 -1 -1 -1 -1 -1 -1 -1 -1 -1 -1 -1 -1 -1 -1 -1 -1 -1 -1 -1 -1 -1
$$ -1 -1 -1 -1 -1 -1 -1 -1 -1 -1 -1 -1 -1 -1 -1 -1 -1 -1 -1 -1 -1 -1 -1 -1
$$ -1 -1 -1 -1 -1 -1 -1 -1 -1 -1 -1 -1 -1 -1 -1 -1 -1 -1 -1 -1 -1 -1 -1 -1
$$ -1 -1 -1 -1 -1 -1 -1 -1 -1 -1 -1 -1 -1 -1 -1 -1 -1 -1 -1 -1 -1 -1 -1 -1
$$ -1 -1 -1 -1 -1 -1 -1 -1 -1 -1 -1 -1 -1 -1 -1 -1 -1 -1 -1 -1 -1 -1 -1 -1
$$ -1 -1 -1 -1 -1 -1 -1 -1 -1 -1 -1 -1 -1 -1 -1 -1 -1 -1 -1 -1 -1 -1 -1 -1
$$ -1 -1 -1 -1 -1 -1 -1 -1 -1 -1 -1 -1 -1 -1 -1 -1 -1 -1 -1 -1 -1 -1 -1 -1
$$ -1 -1 -1 -1 -1 -1 -1 -1 -1 -1 -1 -1 -1 -1 -1 -1 -1 -1 -1 -1 -1 -1 -1 -1
$$ -1 -1 -1 -1 -1 -1 -1 -1 -1 -1 -1 -1 -1 -1 -1 -1 -1 -1 -1 -1 -1 -1 -1 -1
$$ -1 -1 -1 -1 -1 -1 -1 -1 -1 -1 -1 -1 -1 -1 -1 -1 -1 -1 -1 -1 -1 -1 -1 -1
$$ -1 -1 -1 -1 -1 -1 -1 -1 -1 -1 -1 -1 -1 -1 -1 -1
$$ ##$RG_tab6= (0..255)
$$ -1 -1 -1 -1 -1 -1 -1 -1 -1 -1 -1 -1 -1 -1 -1 -1 -1 -1 -1 -1 -1 -1 -1 -1
$$ -1 -1 -1 -1 -1 -1 -1 -1 -1 -1 -1 -1 -1 -1 -1 -1 -1 -1 -1 -1 -1 -1 -1 -1
$$ -1 -1 -1 -1 -1 -1 -1 -1 -1 -1 -1 -1 -1 -1 -1 -1 -1 -1 -1 -1 -1 -1 -1 -1
$$ -1 -1 -1 -1 -1 -1 -1 -1 -1 -1 -1 -1 -1 -1 -1 -1 -1 -1 -1 -1 -1 -1 -1 -1
$$ -1 -1 -1 -1 -1 -1 -1 -1 -1 -1 -1 -1 -1 -1 -1 -1 -1 -1 -1 -1 -1 -1 -1 -1
$$ -1 -1 -1 -1 -1 -1 -1 -1 -1 -1 -1 -1 -1 -1 -1 -1 -1 -1 -1 -1 -1 -1 -1 -1
$$ -1 -1 -1 -1 -1 -1 -1 -1 -1 -1 -1 -1 -1 -1 -1 -1 -1 -1 -1 -1 -1 -1 -1 -1
$$ -1 -1 -1 -1 -1 -1 -1 -1 -1 -1 -1 -1 -1 -1 -1 -1 -1 -1 -1 -1 -1 -1 -1 -1
$$ -1 -1 -1 -1 -1 -1 -1 -1 -1 -1 -1 -1 -1 -1 -1 -1 -1 -1 -1 -1 -1 -1 -1 -1
$$ -1 -1 -1 -1 -1 -1 -1 -1 -1 -1 -1 -1 -1 -1 -1 -1 -1 -1 -1 -1 -1 -1 -1 -1
$$ -1 -1 -1 -1 -1 -1 -1 -1 -1 -1 -1 -1 -1 -1 -1 -1
$$ ##$RG_tab7= (0..255)
$$ -1 -1 -1 -1 -1 -1 -1 -1 -1 -1 -1 -1 -1 -1 -1 -1 -1 -1 -1 -1 -1 -1 -1 -1
$$ -1 -1 -1 -1 -1 -1 -1 -1 -1 -1 -1 -1 -1 -1 -1 -1 -1 -1 -1 -1 -1 -1 -1 -1
$$ -1 -1 -1 -1 -1 -1 -1 -1 -1 -1 -1 -1 -1 -1 -1 -1 -1 -1 -1 -1 -1 -1 -1 -1
$$ -1 -1 -1 -1 -1 -1 -1 -1 -1 -1 -1 -1 -1 -1 -1 -1 -1 -1 -1 -1 -1 -1 -1 -1
$$ -1 -1 -1 -1 -1 -1 -1 -1 -1 -1 -1 -1 -1 -1 -1 -1 -1 -1 -1 -1 -1 -1 -1 -1
$$ -1 -1 -1 -1 -1 -1 -1 -1 -1 -1 -1 -1 -1 -1 -1 -1 -1 -1 -1 -1 -1 -1 -1 -1
$$ -1 -1 -1 -1 -1 -1 -1 -1 -1 -1 -1 -1 -1 -1 -1 -1 -1 -1 -1 -1 -1 -1 -1 -1
$$ -1 -1 -1 -1 -1 -1 -1 -1 -1 -1 -1 -1 -1 -1 -1 -1 -1 -1 -1 -1 -1 -1 -1 -1
$$ -1 -1 -1 -1 -1 -1 -1 -1 -1 -1 -1 -1 -1 -1 -1 -1 -1 -1 -1 -1 -1 -1 -1 -1
$$ -1 -1 -1 -1 -1 -1 -1 -1 -1 -1 -1 -1 -1 -1 -1 -1 -1 -1 -1 -1 -1 -1 -1 -1
$$ -1 -1 -1 -1 -1 -1 -1 -1 -1 -1 -1 -1 -1 -1 -1 -1
$$ ##$RG_tab8= (0..255)
$$ -1 -1 -1 -1 -1 -1 -1 -1 -1 -1 -1 -1 -1 -1 -1 -1 -1 -1 -1 -1 -1 -1 -1 -1
$$ -1 -1 -1 -1 -1 -1 -1 -1 -1 -1 -1 -1 -1 -1 -1 -1 -1 -1 -1 -1 -1 -1 -1 -1
$$ -1 -1 -1 -1 -1 -1 -1 -1 -1 -1 -1 -1 -1 -1 -1 -1 -1 -1 -1 -1 -1 -1 -1 -1
$$ -1 -1 -1 -1 -1 -1 -1 -1 -1 -1 -1 -1 -1 -1 -1 -1 -1 -1 -1 -1 -1 -1 -1 -1
$$ -1 -1 -1 -1 -1 -1 -1 -1 -1 -1 -1 -1 -1 -1 -1 -1 -1 -1 -1 -1 -1 -1 -1 -1
$$ -1 -1 -1 -1 -1 -1 -1 -1 -1 -1 -1 -1 -1 -1 -1 -1 -1 -1 -1 -1 -1 -1 -1 -1
$$ -1 -1 -1 -1 -1 -1 -1 -1 -1 -1 -1 -1 -1 -1 -1 -1 -1 -1 -1 -1 -1 -1 -1 -1
$$ -1 -1 -1 -1 -1 -1 -1 -1 -1 -1 -1 -1 -1 -1 -1 -1 -1 -1 -1 -1 -1 -1 -1 -1
$$ -1 -1 -1 -1 -1 -1 -1 -1 -1 -1 -1 -1 -1 -1 -1 -1 -1 -1 -1 -1 -1 -1 -1 -1
$$ -1 -1 -1 -1 -1 -1 -1 -1 -1 -1 -1 -1 -1 -1 -1 -1 -1 -1 -1 -1 -1 -1 -1 -1
$$ -1 -1 -1 -1 -1 -1 -1 -1 -1 -1 -1 -1 -1 -1 -1 -1
$$ ##$RG_tabA= (0..255)
$$ 0.25 0.28 0.32 0.35 0.4 0.44 0.5 0.56 0.64 0.7 0.8 0.89 1 1.12 1.28 1.4
$$ 1.6 1.78 2 2.25 2.56 2.8 3.2 3.56 4 4.5 5 5.6 6.35 7.12 8 9 10 11.3 12.7
$$ 14.2 16 18 20.2 22.6 25.4 28.5 32 36 40.3 45.2 50.8 57 64 71.8 80.6 90.5
$$ 101 114 128 144 161 181 203 228 256 287 322 362 406 456 512 575 645 724
$$ 812 912 1030 1150 1290 1440 1620 1820 2050 -1 -1 -1 -1 -1 -1 -1 -1 -1 -1
$$ -1 -1 -1 -1 -1 -1 -1 -1 -1 -1 -1 -1 -1 -1 -1 -1 -1 -1 -1 -1 -1 -1 -1 -1
$$ -1 -1 -1 -1 -1 -1 -1 -1 -1 -1 -1 -1 -1 -1 -1 -1 -1 -1 -1 -1 -1 -1 -1 -1
$$ -1 -1 -1 -1 -1 -1 -1 -1 -1 -1 -1 -1 -1 -1 -1 -1 -1 -1 -1 -1 -1 -1 -1 -1
$$ -1 -1 -1 -1 -1 -1 -1 -1 -1 -1 -1 -1 -1 -1 -1 -1 -1 -1 -1 -1 -1 -1 -1 -1
$$ -1 -1 -1 -1 -1 -1 -1 -1 -1 -1 -1 -1 -1 -1 -1 -1 -1 -1 -1 -1 -1 -1 -1 -1
$$ -1 -1 -1 -1 -1 -1 -1 -1 -1 -1 -1 -1 -1 -1 -1 -1 -1 -1 -1 -1 -1 -1 -1 -1
$$ -1 -1 -1 -1 -1 -1 -1 -1 -1 -1 -1 -1 -1 -1 -1 -1 -1 -1 -1 -1 -1 -1 -1
$$ ##$ROBOTTY= <no>
$$ ##$ROUT14= (0..7)
$$ 0 0 0 0 0 0 0 0
$$ ##$ROUTER= -1
$$ ##$RX22TY= <no>
$$ ##$RXFMAX= (0..7)
$$ 647.5 -1 -1 -1 -1 -1 -1 -1
$$ ##$RXFMIN= (0..7)
$$ 5 -1 -1 -1 -1 -1 -1 -1
$$ ##$RXINTLV= (0..7)
$$ 1 0 0 0 0 0 0 0
$$ ##$RXMSTY= <no>
$$ ##$RockSwitchEth= <no>
$$ ##$SCMTY= <no>
$$ ##$SGUC1= (0..15)
$$ 17 18 0 0 0 0 0 0 0 0 0 0 0 0 0 0
$$ ##$SGUC2= (0..15)
$$ 20 256 0 0 0 0 0 0 0 0 0 0 0 0 0 0
$$ ##$SLCBCONF= <SHNV>
$$ ##$SPECTR= 10
$$ ##$SY2FLAG= 0
$$ ##$SYNCTRIG= 11
$$ ##$SamChgEth= (0..3)
$$ <149.236.99.173> <no> <no> <no>
$$ ##$SamChgProtocol= (0..3)
$$ <SOAP> <> <> <>
$$ ##$ServiceNo= <>
$$ ##$Sgu1PowerLevels= (0..7)
$$ 90 74 58 42 26 10 0 0
$$ ##$Sgu2PowerLevels= (0..7)
$$ 90 74 58 42 26 10 0 0
$$ ##$Sgu3PowerLevels= (0..7)
$$ 0 0 0 0 0 0 0 0
$$ ##$Sgu4PowerLevels= (0..7)
$$ 0 0 0 0 0 0 0 0
$$ ##$Sgu5PowerLevels= (0..7)
$$ 0 0 0 0 0 0 0 0
$$ ##$Sgu6PowerLevels= (0..7)
$$ 0 0 0 0 0 0 0 0
$$ ##$Sgu7PowerLevels= (0..7)
$$ 0 0 0 0 0 0 0 0
$$ ##$Sgu8PowerLevels= (0..7)
$$ 0 0 0 0 0 0 0 0
$$ ##$SguType= 3
$$ ##$ShimMaxVal= 32760
$$ ##$ShimPow1Ch2Sh= (0..38)
$$ 0 0 0 0 0 0 0 0 0 0 0 0 0 0 0 0 0 0 0 0 0 0 0 0 0 0 0 0 0 0 0 0 0 0 0 0
$$ 0 0 0
$$ ##$ShimPow1Imax= (0..38)
$$ 0 0 0 0 0 0 0 0 0 0 0 0 0 0 0 0 0 0 0 0 0 0 0 0 0 0 0 0 0 0 0 0 0 0 0 0
$$ 0 0 0
$$ ##$ShimPow1NChan= 0
$$ ##$ShimPow1TotIMax= 0
$$ ##$ShimPow1Vmax= (0..38)
$$ 0 0 0 0 0 0 0 0 0 0 0 0 0 0 0 0 0 0 0 0 0 0 0 0 0 0 0 0 0 0 0 0 0 0 0 0
$$ 0 0 0
$$ ##$ShimPow2Ch2Sh= (0..38)
$$ 0 0 0 0 0 0 0 0 0 0 0 0 0 0 0 0 0 0 0 0 0 0 0 0 0 0 0 0 0 0 0 0 0 0 0 0
$$ 0 0 0
$$ ##$ShimPow2Imax= (0..38)
$$ 0 0 0 0 0 0 0 0 0 0 0 0 0 0 0 0 0 0 0 0 0 0 0 0 0 0 0 0 0 0 0 0 0 0 0 0
$$ 0 0 0
$$ ##$ShimPow2NChan= 0
$$ ##$ShimPow2TotIMax= 0
$$ ##$ShimPow2Vmax= (0..38)
$$ 0 0 0 0 0 0 0 0 0 0 0 0 0 0 0 0 0 0 0 0 0 0 0 0 0 0 0 0 0 0 0 0 0 0 0 0
$$ 0 0 0
$$ ##$ShimPow3Ch2Sh= (0..38)
$$ 0 0 0 0 0 0 0 0 0 0 0 0 0 0 0 0 0 0 0 0 0 0 0 0 0 0 0 0 0 0 0 0 0 0 0 0
$$ 0 0 0
$$ ##$ShimPow3Imax= (0..38)
$$ 0 0 0 0 0 0 0 0 0 0 0 0 0 0 0 0 0 0 0 0 0 0 0 0 0 0 0 0 0 0 0 0 0 0 0 0
$$ 0 0 0
$$ ##$ShimPow3NChan= 0
$$ ##$ShimPow3TotIMax= 0
$$ ##$ShimPow3Vmax= (0..38)
$$ 0 0 0 0 0 0 0 0 0 0 0 0 0 0 0 0 0 0 0 0 0 0 0 0 0 0 0 0 0 0 0 0 0 0 0 0
$$ 0 0 0
$$ ##$ShimPow4Ch2Sh= (0..38)
$$ 0 0 0 0 0 0 0 0 0 0 0 0 0 0 0 0 0 0 0 0 0 0 0 0 0 0 0 0 0 0 0 0 0 0 0 0
$$ 0 0 0
$$ ##$ShimPow4Imax= (0..38)
$$ 0 0 0 0 0 0 0 0 0 0 0 0 0 0 0 0 0 0 0 0 0 0 0 0 0 0 0 0 0 0 0 0 0 0 0 0
$$ 0 0 0
$$ ##$ShimPow4NChan= 0
$$ ##$ShimPow4TotIMax= 0
$$ ##$ShimPow4Vmax= (0..38)
$$ 0 0 0 0 0 0 0 0 0 0 0 0 0 0 0 0 0 0 0 0 0 0 0 0 0 0 0 0 0 0 0 0 0 0 0 0
$$ 0 0 0
$$ ##$ShimPowMaxUA= (0..63)
$$ 130000 130000 130000 130000 130000 130000 130000 130000 130000 130000 130000
$$ 130000 130000 130000 130000 130000 130000 130000 130000 130000 130000 130000
$$ 130000 130000 130000 130000 130000 130000 130000 130000 130000 130000 130000
$$ 130000 130000 130000 130000 130000 130000 130000 0 0 0 0 0 0 0 0 0 0 0
$$ 0 0 0 0 0 0 0 0 0 0 0 0 0
$$ ##$ShimPowMaxUC= (0..63)
$$ 130000 130000 130000 130000 130000 130000 130000 130000 130000 130000 130000
$$ 130000 130000 130000 130000 130000 130000 130000 130000 130000 130000 130000
$$ 130000 130000 130000 130000 130000 130000 130000 130000 130000 130000 130000
$$ 130000 130000 130000 130000 130000 130000 130000 0 0 0 0 0 0 0 0 0 0 0
$$ 0 0 0 0 0 0 0 0 0 0 0 0 0
$$ ##$ShimPowMaxUG= (0..63)
$$ 524287 524287 524287 524287 524287 524287 524287 524287 524287 524287 524287
$$ 524287 524287 524287 524287 524287 524287 524287 524287 524287 524287 524287
$$ 524287 524287 524287 524287 524287 524287 524287 524287 524287 524287 524287
$$ 524287 524287 524287 524287 524287 524287 0 0 0 0 0 0 0 0 0 0 0 0 0 0 0
$$ 0 0 0 0 0 0 0 0 0 0
$$ ##$ShimPowNum= 0
$$ ##$ShimPowRcbType= 3
$$ ##$ShimPowRes= (0..63)
$$ 1e-020 1e-020 1e-020 1e-020 1e-020 1e-020 1e-020 1e-020 1e-020 1e-020 1e-020
$$ 1e-020 1e-020 1e-020 1e-020 1e-020 1e-020 1e-020 1e-020 1e-020 1e-020 1e-020
$$ 1e-020 1e-020 1e-020 1e-020 1e-020 1e-020 1e-020 1e-020 1e-020 1e-020 1e-020
$$ 1e-020 1e-020 1e-020 1e-020 1e-020 1e-020 1e-020 0 0 0 0 0 0 0 0 0 0 0
$$ 0 0 0 0 0 0 0 0 0 0 0 0 0
$$ ##$ShimPowRng0= (0..63)
$$ 1 1 1 1 1 1 1 1 1 1 1 1 1 1 1 1 1 1 1 1 1 1 1 1 1 1 1 1 1 1 1 1 1 1 1 1
$$ 1 1 1 1 0 0 0 0 0 0 0 0 0 0 0 0 0 0 0 0 0 0 0 0 0 0 0 0
$$ ##$ShimPowRng1= (0..63)
$$ 1 1 1 1 1 1 1 1 1 1 1 1 1 1 1 1 1 1 1 1 1 1 1 1 1 1 1 1 1 1 1 1 1 1 1 1
$$ 1 1 1 1 0 0 0 0 0 0 0 0 0 0 0 0 0 0 0 0 0 0 0 0 0 0 0 0
$$ ##$ShimPowRng2= (0..63)
$$ 1 1 1 1 1 1 1 1 1 1 1 1 1 1 1 1 1 1 1 1 1 1 1 1 1 1 1 1 1 1 1 1 1 1 1 1
$$ 1 1 1 1 0 0 0 0 0 0 0 0 0 0 0 0 0 0 0 0 0 0 0 0 0 0 0 0
$$ ##$ShimPowRng3= (0..63)
$$ 1 1 1 1 1 1 1 1 1 1 1 1 1 1 1 1 1 1 1 1 1 1 1 1 1 1 1 1 1 1 1 1 1 1 1 1
$$ 1 1 1 1 0 0 0 0 0 0 0 0 0 0 0 0 0 0 0 0 0 0 0 0 0 0 0 0
$$ ##$ShimPowType1= 0
$$ ##$ShimPowType2= 0
$$ ##$ShimPowType3= 0
$$ ##$ShimPowType4= 0
$$ ##$ShimSysAngle= <>
$$ ##$ShimSysFunc= (0..63)
$$ 1 2 3 4 5 6 7 8 9 10 0 37 38 35 16 15 14 13 12 11 28 27 26 25 24 23 36
$$ 22 30 29 20 21 34 33 32 31 17 18 19 0 0 0 0 0 0 0 0 0 0 0 0 0 0 0 0 0 0
$$ 0 0 0 0 0 0 0
$$ ##$ShimSysMatId= <no>
$$ ##$ShimSysMatrix= 1
$$ ##$ShimSysOffset= <>
$$ ##$ShimSysType= 4
$$ ##$ShimUnit= 0
$$ ##$TFXNUM= 0
$$ ##$TOSITY= <no>
$$ ##$TRIPLO2= 0
$$ ##$VTU= 2
$$ ##$VTUETH= <149.236.99.20>
$$ ##$VTUTY= <no>
$$ ##$WBREFAM= (0..15)
$$ 100.3 100 100 100 100 100 100 100 100 100 100 100 100 100 100 100
$$ ##$WBREFLM= (0..15)
$$ 1 0 0 0 0 0 0 0 0 0 0 0 0 0 0 0
$$ ##$WBREFPH= (0..15)
$$ 0.11 0 0 0 0 0 0 0 0 0 0 0 0 0 0 0
$$ ##$WBSGU= (0..15)
$$ 0 0 0 0 0 0 0 0 0 0 0 0 0 0 0 0
$$ ##$XFAC= 2
$$ ##END=
##$RELAX= 
##$BRUKER FILE PROC=integrals.txt
$$    Current data set:
$$    NAME =	Cyclopropylmethylalkohol	EXPNO =	170	PROCNO = 1
$$    DU   =	Z:/data/Datenbank/Erstellte Datenbank
$$ 
$$    Number   Integrated Region     Integral
$$      1      3.470      3.418         2.00000
$$      2      1.166      1.043         0.99915
$$      3      0.581      0.480         2.00499
$$      4      0.266      0.160         2.00797
##$RELAX= 
##$BRUKER FILE PROC=intrng
$$ A 1.0 #regions in PPM
$$ # low field   high field  bias        slope
$$   3.46963412276818  3.4176322354244806  -0.0  -0.0  # for region 1
$$   1.1662478410391186  1.0433911982426314  -0.0  -0.0  # for region 2
$$   0.5813433894645378  0.4798531193283091  -0.0  -0.0  # for region 3
$$   0.2661893927257225  0.16024779495193997  -0.0  -0.0  # for region 4
##$RELAX= 
##$BRUKER FILE PROC=parm.txt
$$ 
$$ Current Data Parameters
$$ NAME     20241028-AVIII600              
$$ EXPNO               170              
$$ PROCNO                1              
$$ 
$$ F2 - Acquisition Parameters
$$ Date_          20241028              
$$ Time              12.49 h            
$$ INSTRUM           spect              
$$ PROBHD   Z114607_0100 (              
$$ PULPROG            zg30              
$$ TD                65536              
$$ SOLVENT           CDCl3              
$$ NS                   16              
$$ DS                    2              
$$ SWH           12019.230 Hz           
$$ FIDRES         0.366798 Hz           
$$ AQ            2.7262976 sec          
$$ RG                   64              
$$ DW               41.600 usec         
$$ DE                12.05 usec         
$$ TE                298.0 K            
$$ D1           1.00000000 sec          
$$ TD0                   1              
$$ SFO1        600.1337058 MHz          
$$ NUC1                 1H              
$$ P0                 3.46 usec         
$$ P1                10.37 usec         
$$ PLW1        29.99200058 W            
$$ 
$$ F2 - Processing parameters
$$ SI                65536              
$$ SF          600.1301293 MHz          
$$ WDW                  EM              
$$ SSB                   0              
$$ LB                 0.30 Hz           
$$ GB                    0              
$$ PC                 1.00              
##$RELAX= 
$$ Bruker specific parameters
$$ --------------------------
##$DATPATH= <C:/Users/Admin/Nextcloud/Studium/NMR>
##$EXPNO= 170
##$NAME= <Cyclopropylmethylalkohol>
##$PROCNO= 1
##$ACQT0= -1.76893276833414
##$AMP= (0..31)
100 100 100 100 100 100 100 100 100 100 100 100 100 100 100 100 100 100
100 100 100 100 100 100 100 100 100 100 100 100 100 100
##$AMPCOIL= (0..32)
-1 0 0 0 0 0 0 0 0 0 0 0 0 0 0 0 0 0 0 0 0 0 0 0 0 0 0 0 0 0 0 0 0
##$AQSEQ= 0
##$AQ_mod= 3
##$AUNM= <au_zg>
##$AUTOPOS= <1 >
##$BF1= 600.13
##$BF2= 600.13
##$BF3= 600.13
##$BF4= 600.13
##$BF5= 600.13
##$BF6= 600.13
##$BF7= 600.13
##$BF8= 600.13
##$BWFAC= (0..63)
0 0 0 0 0 0 0 0 0 0 0 0 0 0 0 0 0 0 0 0 0 0 0 0 0 0 0 0 0 0 0 0 0 0 0 0
0 0 0 0 0 0 0 0 0 0 0 0 0 0 0 0 0 0 0 0 0 0 0 0 0 0 0 0
##$BYTORDA= 0
##$CHANFCU= (0..24)
0 0 0 0 0 0 0 0 0 0 0 0 0 0 0 0 0 0 0 0 0 0 0 0 0
##$CHANREC= (0..24)
0 0 0 0 0 0 0 0 0 0 0 0 0 0 0 0 0 0 0 0 0 0 0 0 0
##$CHEMSTR= <none>
##$CNST= (0..63)
1 1 1 1 1 1 1 1 1 1 1 1 1 1 1 1 1 1 1 1 1 1 1 1 1 1 1 1 1 1 1 1 1 1 1 1
1 1 1 1 1 1 1 1 1 1 1 1 1 1 1 1 1 1 1 1 1 1 1 1 1 1 1 1
##$CPDPRG= (0..8)
<> <> <> <> <> <> <> <> <>
##$D= (0..63)
0 1 0 0 0 0 0 0 0 0 0 0 0 0 0 0 0.0002 0 0 0 0 0 0 0 0 0 0 0 0 0 0 0 0
0 0 0 0 0 0 0 0 0 0 0 0 0 0 0 0 0 0 0 0 0 0 0 0 0 0 0 0 0 0 0
##$DATE= 1730116144
##$DATE_START= 1730116073
##$DE= 12.04607
##$DECBNUC= <off>
##$DECIM= 1664
##$DECNUC= <off>
##$DECSTAT= 4
##$DIGMOD= 3
##$DIGTYP= 12
##$DR= 22
##$DS= 2
##$DSPFIRM= 0
##$DSPFVS= 21
##$DTYPA= 0
##$EXP= <PROTON.AUT>
##$ExpStatus= 0
##$FCUCHAN= (0..9)
0 2 0 0 0 0 0 0 0 0
##$FILCOR= 0
##$FL1= 0
##$FL2= 0
##$FL3= 0
##$FL4= 0
##$FN_INDIRECT= (0..7)
0 0 0 0 0 0 0 0
##$FOV= 0
##$FQ1LIST= <>
##$FQ2LIST= <>
##$FQ3LIST= <>
##$FQ4LIST= <>
##$FQ5LIST= <>
##$FQ6LIST= <>
##$FQ7LIST= <>
##$FQ8LIST= <>
##$FS= (0..7)
83 83 83 83 83 83 83 83
##$FTLPGN= 0
##$FW= 4032000
##$FnILOOP= 0
##$FnMODE= 0
##$FnTYPE= 0
##$GPNAM= (0..31)
<> <> <> <> <> <> <> <> <> <> <> <> <> <> <> <> <> <> <> <> <> <> <> <>
<> <> <> <> <> <> <> <>
##$GPX= (0..31)
0 0 0 0 0 0 0 0 0 0 0 0 0 0 0 0 0 0 0 0 0 0 0 0 0 0 0 0 0 0 0 0
##$GPY= (0..31)
0 0 0 0 0 0 0 0 0 0 0 0 0 0 0 0 0 0 0 0 0 0 0 0 0 0 0 0 0 0 0 0
##$GPZ= (0..31)
0 0 0 0 0 0 0 0 0 0 0 0 0 0 0 0 0 0 0 0 0 0 0 0 0 0 0 0 0 0 0 0
##$GRPDLY= 76
##$HDDUTY= 20
##$HDRATE= 1
##$HGAIN= (0..3)
0 0 0 0
##$HL1= 0
##$HL2= 0
##$HL3= 0
##$HL4= 0
##$HOLDER= 1
##$HPMOD= (0..32)
0 0 0 0 0 0 0 0 0 0 0 0 0 0 0 0 0 0 0 0 0 0 0 0 0 0 0 0 0 0 0 0 0
##$HPPRGN= 0
##$IN= (0..63)
0 0 0 0 0 0 0 0 0 0 0 0 0 0 0 0 0 0 0 0 0 0 0 0 0 0 0 0 0 0 0 0 0 0 0 0
0 0 0 0 0 0 0 0 0 0 0 0 0 0 0 0 0 0 0 0 0 0 0 0 0 0 0 0
##$INF= (0..7)
0 0 0 0 0 0 0 0
##$INP= (0..63)
0 0 0 0 0 0 0 0 0 0 0 0 0 0 0 0 0 0 0 0 0 0 0 0 0 0 0 0 0 0 0 0 0 0 0 0
0 0 0 0 0 0 0 0 0 0 0 0 0 0 0 0 0 0 0 0 0 0 0 0 0 0 0 0
##$INSTRUM= <spect>
##$INTEGFAC= (0..63)
0 0 0 0 0 0 0 0 0 0 0 0 0 0 0 0 0 0 0 0 0 0 0 0 0 0 0 0 0 0 0 0 0 0 0 0
0 0 0 0 0 0 0 0 0 0 0 0 0 0 0 0 0 0 0 0 0 0 0 0 0 0 0 0
##$L= (0..31)
1 1 1 1 1 1 1 1 1 1 1 1 1 1 1 1 1 1 1 1 1 1 1 1 1 1 1 1 1 1 1 1
##$LFILTER= 100
##$LGAIN= -12
##$LINPSTP= 0
##$LOCKED= yes
##$LOCKFLD= 3397
##$LOCKGN= 122.067138671875
##$LOCKPOW= -30
##$LOCKPPM= 7.23999977111816
##$LOCNUC= <2H>
##$LOCPHAS= 141.3187
##$LOCSHFT= yes
##$LOCSW= 0
##$LTIME= 0.400000005960464
##$MASR= 4200
##$MULEXPNO= (0..15)
0 0 0 0 0 0 0 0 0 0 0 0 0 0 0 0
##$NBL= 1
##$NC= -6
##$NLOGCH= 2
##$NOVFLW= 0
##$NS= 16
##$NUC1= <1H>
##$NUC2= <off>
##$NUC3= <off>
##$NUC4= <off>
##$NUC5= <off>
##$NUC6= <off>
##$NUC7= <off>
##$NUC8= <off>
##$NUCLEUS= <off>
##$NUSLIST= <automatic>
##$NusAMOUNT= 25
##$NusFPNZ= no
##$NusJSP= 0
##$NusSEED= 54321
##$NusSPTYPE= 0
##$NusT2= 1
##$NusTD= 0
##$O1= 3705.8
##$O2= 3705.8
##$O3= 3705.8
##$O4= 3705.8
##$O5= 3705.8
##$O6= 3705.8
##$O7= 3705.8
##$O8= 3705.8
##$OVERFLW= 0
##$P= (0..63)
3.456667 10.37 20.74 0 0 16.5 25 50 20000 0 0 80000 80000 1000 0 0 1000
0 100000 600 0 0 0 0 0 180 100000 10.37 1000 1000 0 0 20000 0 0 0 0 0 0
0 2000 0 0 0 200 0 80000 46600 10000 0 80000 0 0 0 0 0 0 0 0 0 0 0 0 0
##$PACOIL= (0..32)
2 3 1 0 0 0 0 0 0 0 0 0 0 0 0 0 0 0 0 0 0 0 0 0 0 0 0 0 0 0 0 0 0
##$PAPS= 0
##$PARMODE= 0
##$PCPD= (0..9)
0 70 0 0 0 0 0 0 0 0
##$PEXSEL= (0..9)
1 1 1 1 1 1 1 1 1 1
##$PHCOR= (0..31)
0 0 0 0 0 0 0 0 0 0 0 0 0 0 0 0 0 0 0 0 0 0 0 0 0 0 0 0 0 0 0 0
##$PHLIST= <>
##$PH_ref= 0
##$PL= (0..63)
120 120 120 120 120 120 120 120 120 120 120 120 120 120 120 120 120 120
120 120 120 120 120 120 120 120 120 120 120 120 120 120 120 120 120 120
120 120 120 120 120 120 120 120 120 120 120 120 120 120 120 120 120 120
120 120 120 120 120 120 120 120 120 120
##$PLSTEP= 0.1
##$PLSTRT= -6
##$PLW= (0..63)
0 29.992 0 0 0 0 0 0 0 0.00012906 5.1623 0.39833 0 0 0 0 0 0 29.992 0.65846
0 0 0 0 0 0 0 0.39833 0 5.1623 0 0 5.1623e-06 0 0 0 0 0 0 0 0 0 0 0 0 0
0 0 0 0 0 0 0 0 0 0 0 0 0 0 0 0 0 0
##$PLWMAX= (0..7)
89.67 0 0 0 0 0 0 0
##$PQPHASE= 0
##$PQSCALE= 1
##$PR= 1
##$PRECHAN= (0..32)
-1 2 -1 0 -1 1 -1 -1 -1 -1 -1 -1 -1 -1 -1 -1 -1 -1 -1 -1 -1 -1 -1 -1 -1
-1 -1 -1 -1 -1 -1 -1 -1
##$PROBHD= <Z114607_0100 (PA BBO 600S3 BBF-H-D-05 Z SP)>
##$PROBINPUTS= (0..15)
<19F-109Ag> <1H> <2H> <> <> <> <> <> <> <> <> <> <> <> <> <>
##$PULPROG= <zg30>
##$PW= 0
##$PYNM= <>
##$ProjAngle= 0
##$QNP= 0
##$RECCHAN= (0..9)
0 2 0 0 0 0 0 0 0 0
##$RECPH= 0
##$RECPRE= (0..24)
-1 0 -1 -1 -1 -1 -1 -1 -1 -1 -1 -1 -1 -1 -1 -1 -1 -1 -1 -1 -1 -1 -1 -1
-1
##$RECPRFX= (0..32)
1 0 0 0 0 0 0 0 0 0 0 0 0 0 0 0 -1 -1 -1 -1 -1 -1 -1 -1 -1 -1 -1 -1 -1
-1 -1 -1 -1
##$RECSEL= (0..24)
0 0 1 0 0 0 0 0 0 0 0 0 0 0 0 0 0 0 0 0 0 0 0 0 0
##$RG= 64
##$RO= 0
##$RSEL= (0..24)
0 0 2 0 0 0 0 0 0 0 0 0 0 0 0 0 0 0 0 0 0 0 0 0 0
##$SAMPLEID= <>
##$SELREC= (0..24)
0 0 0 0 0 0 0 0 0 0 0 0 0 0 0 0 0 0 0 0 0 0 0 0 0
##$SFO1= 600.1337058
##$SFO2= 600.1337058
##$SFO3= 600.1337058
##$SFO4= 600.1337058
##$SFO5= 600.1337058
##$SFO6= 600.1337058
##$SFO7= 600.1337058
##$SFO8= 600.1337058
##$SOLVENT= <CDCl3>
##$SOLVOLD= <off>
##$SP= (0..63)
120 120 120 120 120 120 120 120 120 120 120 120 120 120 120 120 120 120
120 120 120 120 120 120 120 120 120 120 120 120 120 120 120 120 120 120
120 120 120 120 120 120 120 120 120 120 120 120 120 120 120 120 120 120
120 120 120 120 120 120 120 120 120 120
##$SPECTR= 0
##$SPINCNT= 0
##$SPNAM= (0..63)
<> <Gaus1_270.1000> <Gaus1_180r.1000> <> <> <Squa100.1000> <Squa100.1000>
<> <Squa100.1000> <> <Squa100.1000> <Squa100.1000> <> <> <> <> <> <> <>
<Sinc1.1000> <Sinc1.1000> <Sinc1.1000> <Sinc1.1000> <> <> <> <> <> <> <Crp60,20,20.10>
<Bip720,50,20.1> <> <> <> <Rsnob.1000> <Gaus1_180r.1000> <Gaus1_180r.1000>
<> <> <> <Gaus1_180r.1000> <Squa100.1000> <> <> <> <> <> <> <> <> <> <>
<> <> <> <> <> <> <> <> <> <> <> <>
##$SPOAL= (0..63)
0.5 1 0.5 0.5 0.5 0.5 0.5 0.5 0.5 0.5 0.5 0.5 0.5 0.5 0.5 0.5 0.5 0.5 0.5
1 1 1 1 0.5 0.5 0.5 0.5 0.5 0.5 0.5 0.5 0.5 0.5 0.5 0.5 0.5 0.5 0.5 0.5
0.5 0.5 0.5 0.5 0.5 0.5 0.5 0.5 0.5 0.5 0.5 0.5 0.5 0.5 0.5 0.5 0.5 0.5
0.5 0.5 0.5 0.5 0.5 0.5 0.5
##$SPOFFS= (0..63)
0 0 0 0 0 0 0 0 0 0 0 0 0 0 0 0 0 0 0 0 0 0 0 0 0 0 0 0 0 0 0 0 0 0 0 0
0 0 0 0 0 0 0 0 0 0 0 0 0 0 0 0 0 0 0 0 0 0 0 0 0 0 0 0
##$SPPEX= (0..63)
0 0 0 0 0 0 0 0 0 0 0 0 0 0 0 0 0 0 0 0 0 0 0 0 0 0 0 0 0 0 0 0 0 0 0 0
0 0 0 0 0 0 0 0 0 0 0 0 0 0 0 0 0 0 0 0 0 0 0 0 0 0 0 0
##$SPW= (0..63)
0 2.6785e-05 1.1904e-05 0 0 0.0032265 0.00012906 0 3.2265e-07 0 0.0032265
0.0032265 0 0 0 0 0 0 0 1.90026e-05 2.953893e-05 1.379259e-05 7.438228e-05
0 0 0 0 0 0 0.12324 5.1623 0 0 0 0.00013014 1.1904e-05 0.00076187 0 0 0
1.1904e-05 3.2265e-07 0 0 0 0 0 0 0 0 0 0 0 0 0 0 0 0 0 0 0 0 0 0
##$SUBNAM= (0..9)
<> <> <> <> <> <> <> <> <> <>
##$SW= 20.0275882741975
##$SWIBOX= (0..32)
0 0 3 0 0 0 0 0 0 0 0 0 0 0 0 0 0 0 0 0 0 0 0 0 0 0 0 0 0 0 0 0 0
##$SW_h= 12019.23
##$SWfinal= 0
##$SigLockShift= 0
##$TD= 65536
##$TD0= 1
##$TD_INDIRECT= (0..7)
0 0 0 0 0 0 0 0
##$TDav= 1
##$TE= 298.0019
##$TE1= 298.0019
##$TE2= 0
##$TE3= 0
##$TE4= 0
##$TEG= 300
##$TE_MAGNET= 0
##$TE_PIDX= 1
##$TE_RAW= 298.0019
##$TE_STAB= (0..9)
1 1 0 0 0 0 0 0 0 0
##$TOTROT= (0..63)
0 0 0 0 0 0 0 0 0 0 0 0 0 0 0 0 0 0 0 0 0 0 0 0 0 0 0 0 0 0 0 0 0 0 0 0
0 0 0 0 0 0 0 0 0 0 0 0 0 0 0 0 0 0 0 0 0 0 0 0 0 0 0 0
##$TUBE_TYPE= <>
##$USERA1= <>
##$USERA10= <>
##$USERA2= <>
##$USERA3= <>
##$USERA4= <>
##$USERA5= <>
##$USERA6= <>
##$USERA7= <>
##$USERA8= <>
##$USERA9= <>
##$UUID= <776abec0-9522-11ef-b82e-3417eba89713>
##$V9= 5
##$VALIDCODE= -1
##$VALIST= <>
##$VCLIST= <>
##$VDLIST= <>
##$VPLIST= <>
##$VTLIST= <>
##$WAVEMAKER= (0..7)
<> <> <> <> <> <> <> <>
##$WBST= 1024
##$WBSW= (0..7)
4 10 10 10 10 10 10 10
##$XGAIN= (0..3)
0 0 0 0
##$XL= 0
##$YL= 0
##$YMAX_a= 4525879
##$YMIN_a= -4005823
##$ZGOPTNS= <>
##$ZL1= 120
##$ZL2= 120
##$ZL3= 120
##$ZL4= 120
##$scaledByNS= no
##$scaledByRG= no
##$shimCoilTempK= 300
##$ABSF1= 15.97337
##$ABSF2= -4.054338
##$ABSG= 5
##$ABSL= 50
##$ALPHA= 0
##$AQORDER= 0
##$ASSFAC= 0
##$ASSFACI= 0
##$ASSFACX= 0
##$ASSWID= 0
##$AUNMP= <proc_1d>
##$AXLEFT= 0
##$AXNAME= <>
##$AXNUC= <1H>
##$AXRIGHT= 0
##$AXTYPE= 0
##$AXUNIT= <>
##$AZFE= 0.1
##$AZFW= 0.1
##$BCFW= 0
##$BC_mod= 0
##$BYTORDP= 0
##$COROFFS= 0
##$CY= 15
##$DATMOD= 1
##$DC= 0
##$DFILT= <>
##$DTYPP= 0
##$ERETIC= no
##$F1P= 0
##$F2P= 0
##$FCOR= 1
##$FTSIZE= 65536
##$FT_mod= 6
##$GAMMA= 0
##$GB= 0
##$INTBC= 1
##$INTSCL= 2.17228724844987e-10
##$ISEN= 128
##$LB= 0.3
##$LEV0= 0
##$LPBIN= 0
##$MAXI= 10000
##$MC2= 0
##$MEAN= 0
##$ME_mod= 0
##$MI= 0.1
##$MddCEXP= no
##$MddCT_SP= no
##$MddF180= no
##$MddLAMBDA= 0
##$MddMEMORY= 0
##$MddMERGE= 0
##$MddNCOMP= 0
##$MddNITER= 0
##$MddNOISE= 0
##$MddPHASE= 0
##$MddSEED= 0
##$MddSRSIZE= 0
##$Mdd_CsALG= 0
##$Mdd_CsLAMBDA= 0
##$Mdd_CsNITER= 0
##$Mdd_CsNORM= 0
##$Mdd_CsVE= no
##$Mdd_CsZF= 0
##$Mdd_LrLAMBDA= 0
##$Mdd_LrNITER= 0
##$Mdd_LrRANK= 0
##$Mdd_LrZF= 0
##$Mdd_mod= 0
##$NCOEF= 0
##$NC_proc= -4
##$NLEV= 6
##$NOISF1= 0
##$NOISF2= 0
##$NSP= 0
##$NTH_PI= 0
##$NZP= 0
##$OFFSET= 16.18152
##$PC= 1
##$PHC0= 79.10808
##$PHC1= -1.157896
##$PH_mod= 1
##$PKNL= yes
##$PPARMOD= 0
##$PPDIAG= 0
##$PPIPTYP= 0
##$PPMPNUM= 2147483647
##$PPRESOL= 1
##$PSCAL= 4
##$PSIGN= 0
##$PYNMP= <>
##$RDF1= 0
##$RDF2= 0
##$RDFWHM= 0
##$RDINT= 0
##$RDPOS= 0
##$REVERSE= no
##$SF= 600.130004400583
##$SI= 65536
##$SIGF1= 0
##$SIGF2= 0
##$SINO= 0
##$SIOLD= 65536
##$SPECTYP= <PROTON>
##$SREF_mod= 1
##$SREGLST= <1H.CDCl3>
##$SSB= 0
##$STSI= 65536
##$STSR= 0
##$SW_p= 12019.2307692308
##$SYMM= 0
##$S_DEV= 0
##$TDeff= 65536
##$TDoff= 0
##$TI= <>
##$TILT= no
##$TM1= 0
##$TM2= 0
##$TOPLEV= 0
##$USERP1= <>
##$USERP10= <>
##$USERP2= <>
##$USERP3= <>
##$USERP4= <>
##$USERP5= <>
##$USERP6= <>
##$USERP7= <>
##$USERP8= <>
##$USERP9= <>
##$WDW= 1
##$XDIM= 65536
##$YMAX_p= 448630848
##$YMIN_p= -39430
##$CURPLOT= <>
##$CURPRIN= <$>
##$DFORMAT= <normdp>
##$LAYOUT= <+/1D_H.xwp>
##$LFORMAT= <normlp>
##$PFORMAT= <normpl>
$$ End of Bruker specific parameters
$$ ---------------------------------
##XUNITS= HZ
##YUNITS= ARBITRARY UNITS
##XFACTOR= 0.183398907001202
##YFACTOR= 1
##DELTAX= -0.183398907001202
##NPOINTS= 65536
##FIRSTX= 12019.0473703238
##FIRSTY= 10183
##LASTX= 0
##MAXY= 448630848
##MINY= -39430
##XYDATA= (X++(Y..Y))
65535A0183J322R95l815k79J675J128J976K714K776M158o16k943O04j83j471Q88
65519A9112L119l414n420l292l516M564O861k899k810r89L566L717m441k709M400
65504A5849j570O71K836l749j690R46j832r96j3J940j21j595q56J511l3K656J024
65487A4978n199j220N696j296J076k513J602L949j117j991k28L471m14K632l081
65472A6345K50Q54j546M27l865j586J195j414R61L60n1K346K812l051k391K830
65456A4476j573j464j231m419J512O144j46m563L305R4J795J042J483K179m987
65441A3647n873O687K543r35m105P29J552K476O77L36p72p716P67k749J847O280
65425A5391m252O9k86n54K330m55l302l320o05K643l55J288M349N443K50n147
65409A3487j262l05Q54n58L646K443k387k078m122J267M520O044K90p125F775
65393E936O1N323J979j246l966j874P12L534L343K395K59j138m688L91k2j271
65377I728mr42o19q9J751k45m68k687J542N951k146k92l78n13O17K473J322m898
65359A0103k702L452m08P42K517j491n325J095N024l642j069J522J305N55l578
65344H100K731K304l923r47M890l003o40k105n11K316Q3J837j500R37l796K47
65328G020N771n219B791N741j520n31K076r65C781r00O549M163P6j795k822j860
65312G192j134N291k589O86L038J668l696D944A673M999N04R76L584Q64Q34J625
65296A5059O145l697N75j374l30R55n958L16p59K79K554K658R71o180n18K030
65280A2726n728j510K224P407J087l470n5O167n839m109D014Q26j36Q21K214J392
65264I131k710B843A03i41A870K193J169L447N2L461j190J646j834C727K252N753
65248A1732k703m237Q00K651Q68j320E2a661I59k53K384L582R35j211h5G26N218
65231E944J534A742i06G119N008M324m425n413K579O634k568l162q34j47j276
65216G839n27j984A572J818L01A739K387J433J754k640J769q10M242J800r72k494
65200H208L75k396l90A785a74F598J796k8n91l447M440Q737j189m560j977l553
65184F226j937R258p56m790Q54l427R83J817J313l862A571K052M274j024j359
65169E514j863M651M927j763N651L882m001G467r26Q005k521m21M41L697P163
65154B2905q74k887p628k206J82k037J728P80j693D066K178Q148j241K244l789
65139A1606C571M048j013F15j23M304J578B931J315o05A294J469L504I02B82K672
65123B954J06b846A672J84l19n94a883I28J0330n283C56M825M257D301h91m66
65107a357E40K888M72A368m58h94E617M598p27l871b750j470B813P072l584B701
65090G165M454K97E388K788C809h17l074j883a172l34B678J253L781K962k85m640
65074E749J375j666k171j522J071O432m399k209K78A63L732O244m926B524J7J390
65058C931m96K754L124K784j658m956M887k022c99n21j090L74f9m68D92c26D070
65040F581j446B455J860L24A702Q21K579A929d66B091M74r41J411L651J16j856
65024D946m50J198k737G70L101J581K164J124j077N19J80a740o213Q21K22A625
65007F020J217m16j566A913nm85F66P77Q95K121j99J828j044P93L407b381o587
64990h968A415Q532J665M47K80o94E536f257k811J654E78J0983k030l878J132
64975F785J144j480j388N783P344H950m138J579J911MM179n607B49c147b41A399
64958c717d57E09c438B136l14N45O179j287I28K060l99a60C694j464K577k224
64942B583o15M271J66L844k575J356K272C018K186j058D39b277H57M957L497M618
64926A3929M340j220o992j092Q10l313a820o027O91k615A240M873B251c901i53
64910H86P602j063J920k980j341b718H25O830B075i00E539J532K538j2K740L94
64894A2731m242M55J057j126o46J817l372K943j308C914j62L736k789R4C94d419
64877A53J1403O490m455L24n153l742J981j668j605K288O47K884M539O52o224
64862H514l315M684M159j644o62m94n233L124J067A727g55H1J823b228n341e3
64845F977J335j725B40g32l155n3P03a36E979j725A307M031J277h51n96B068K316
64828D384J269G36d768J653j250J122A15b938e18K9I03J108K164A977n76a282
64811d14D594E88K662M475K405L449n844A833b130l344f60C939A468A78M791j24
64795D845A232b840J14I59N239P70g76B381q9L004J880A637o79P810M701B948
64778c805J672C218J844E03g68C19L44Q056n53M499J078B365n50J918A694c461
64761d764b319q48j325J303o376a358C674L91q24b295Q57E401J196j966B015b191
64744C11M317I10d696K251C136M043M375n584O21j811B221M213k794J936O012
64729A1588j359L30p36a734e77D175a48C812M126p79M057E235B249P31J302J350
64713E632K508O269M270G742J166l80l681N68M863L091M492l229E576n21J425
64698F480k822j748G44K532M057o29j688A318L794N525k207a33E454k540b249
64682e185e8D085N756L620m282k509k170M950M44m384B235e61k603c84B46a196
64665D797P998j990j306j438J631j182J948Q35l7k347m46l897k115J1408L02n515
64649H646J266m932p78a255n064J444J594A176J409K837B087a180F34B79b074
64633d823a105A080c219D38M942M601J667k515d89m094a102E158o80a840G500
64617A6574n931m795f19B136J965A413e607o19Q85Q55g58B886N809B156a0614
64601a0420J158K244J622K478A102b352d29F672j014L18mj025j126J234j923J97
64585C329J280l12m50A866d284j386E63a37o11p349J817A398M268B798f234b250
64568A809K25M189C025j156J358K022N009N03D166a649k026j105l275a696A885
64552D073j207b276l227l222l394j151M129N18r58d682a767I53J2530l203E136
64536B127i256K311D37K74K702O4A575N923n20l242K1j606R80a959m105E9L704
64519C763J576K655B611kJ992J683a42A426a574IP11c392E789k90n5A594P58M63
64501B815N80M235r79K051D96j88O682M509N90l173A094K901L733N280M796H676
64484a032H76J847l45a846l173n40P65b76n359B186J698P987J067o166k785A701
64467A043O1P010J0067q011M791K915G402e22A629b214m419J30p64K085b078C824
64450C790A427K524J590J266I26J039M06f767b857D49a48m281j739H82L79K309
64434C570P533l63l747p80j583L351K119K853k002m670k668o64N751j087k200
64419E413L648N103l556j028m519j889M640L35A644L361o3a684j135a296m302
64404e598m66D246J810L345J046m500j637a429r86C106L254j188A272l59f140
64388b035A44O165j815k244J635N126l964d447k108f74C374P98b83C500J624k406
64372B718J916b268j761i22D525M57d02j942D884J027a21A719G92b001j264C190
64355D645n6F30J179a596L17b16j455j883J026k119j715q58c588A437K114K143
64339E694b674l115K03J786n75a735C112d66E79N466j66B877M010K661l463L28
64323F413B356b834D657P30J654L070j485L107j920H25a723D035O582N24k514
64308H627B240d758k529L026B460N059J544j228C498c742n356P06A33c522k872
64293f394b346N19D33j33K510P433D115J001M78b972k634D551L516j601j085k63
64277E118K012M21l375A394e293R40j853a635H266Q473K140o925C02d897B421
64261I028H09C20f87k640k165E00R783k035A153P83K266K954j240K550J729j653
64245H542m249f30A86L62c572B547A008a160A2324J379n551l899j625a94C747
64229E264a422k895J803a124j957l090K426O90B9M74j7c421l818k327J894O61
64213g011K288k54G0b715n385A468O363B803A389a325G42J009J197n19K551j317
64197C663O736p78C648rb22k008C307K288m24B042K475K846J097C279Q98K718
64181F895M003j218R68J719D579d636J317C91M946j77L436C104c304D833j98j379
64165C256l25P102m746L92k41j786n63q60k64K960M423J035L007k141l983l154
64149D112j839c846O38E949N27A328c800l14A108K793A483a891m081b539C303
64133A2774P04O35k94L583l044o690N24k104K751J361m158a168l730K171O36C698
64116A1365P272l71J961q687B991I94h54I16A32K866J1386J817p36n668B833d41
64099A727F2R15m13c303j87E79a125B76L857a823l686K108b56m339l963c399q60
64082d259a204A125J785M590H68M140K606l479J433b81D620J410k120K829J023
64067G762C746L537P7C027K808L140O06l930j87L627J6N474M428k5G979B465L048
64050E513Q976K876l846n600J603P5m1j347A92K416N346p12A765a65G441N534
64034A2975k353J265j298m140B672m89O834L055n926F92g508Lk32G202P409m659
64018I952m75C908g15A647O083k9J560L932n876g414J759a088l321K090A247P572
64002H819K417O69m138B430C15Q904R201m697F105c511p43L65R23R40d66m482
63986d948a003k690j156D478J889K431m5O088L401l105J781K035N56p627m554
63971G328k137a128C4a256H35L135A490O294o8j788C41c82E587k060A536J202
63955B738R53A434P70O477M468M38l200D126J711k810E34P119a512k339m594r02
63939i347l467o70L583c674a210C434P3f08l105e92A022e058l271M020d98j216
63923a714e92o514q03j848a142D300P132k332l788j443A446F75C9d55F261m33
63907E828k274a127D578A872E51e97n480o57k217a767G409M079n601k524g3p97
63891h70c59E01K687K330L133K570K344o467j636j570A767d552k295l37J171b923
63874C931h62A732J3223j82l384m221P92k712m83k134M57J301A06N640J277Q30
63858G853k057j61B173c959C992K942B952Q23j381l6J771M571L558j627D381i
63841F625J509j822J470L381m744a140G24P469N85k536N519J86n455j847J125
63826E770K156B353g954j406a870E159j505l32d662K125j988F524p04k861N555
63811H514m068C82O483M66k787O564M70O4j923C412b710N60F852J498b466m083
63795f549b820E966o51J098L235k312f22n773A479e64A932J288J486Q969m250
63780I425k694j687M686M149l476m007K456m097q92b243n801K045B820K737J160
63765F717L671J242E766B496P61L768L487L954E538k062M004l316D33M73N345
63750F251B811J575J467r38Q36a111m425b100E35M951B717O722k931i17A762Q958
63734A0720J935n077A144k90J821M055k524H86J414a168o87A832K832k072b768
63718i562J422b258A329K889j886Q39a250n226b892j135B585N61K547j992a959
63702E139k110b516B154K483M817N099m990B247K536N934l010k383J838k997B51
63686E170o94j667M017B145A46J838J617L852J071Q29j671j45M209q9n327d81
63669c248J603D131P989q64n576A043b201E971k416M31J766k300J256J839L775
63654A0322J469D925l69J778C03g001h26F91C16L875r25B59L643Q230Q30F093
63637E030A536J881L823K668C477J658J861o51l019O612L192m820N88M56K973
63622A2327P515o611E460n56A632k73a614k00B425M122A995a321k745j022m11
63607e499L56H90Q03c899e24B127e514m84b794f57m080k257b785D66K842A406
63590c421N30m48Q75j192J360h35A497K191K051A887K291L10A900O354K344l775
63574F823p20q6d845m77D33b248o626m38d02I960n39J923k994l036B201d19A557
63556a363C842P53B208r81g740A473J344a804h73p025l006c976D723j636c376
63540c810a729A67K386e045k705c436l777N12B170b05j722C500K726l030a878
63524a903B43h04A880J551L099l131j449P562L759F065F82J452b508A454K454
63509C908M5j22L899N478k249A534o69R080j237b155l26C021J60J800L47K207
63493G535a809k614r34j515k039j331L677m35a864N80f39G79b380l273n95G96
63476G539A191a116C609J302B013d68D4R30a787E527N253r50C875b485A103L340
63460D443M303q25Q67j982k351L804k532k862g87G110K023K404P191k243H086
63444C877N766K248K878O538p526l680l849c222m435E689L961l186A576J251K779
63429E606N558r83K780J34j8C217a605d60C36R84N267j488d782l99e26G225K784
63412A0009m974N7j021N08J359j892J749M223k548B87P41J039c169A567L843L270
63396H680j624k201J580H82D39b108k355A269J788D90R49a200m82A025c319b44
63379C168l82h36n001b804k155N52a233A26J738g29l694J933GM121J535H09b266
63361f398B277a980k438F457L570m056J499N689j938j901j731e08k659a051D288
63345I099l5j827j159k661b087r94F193Q45C33J142J920J164J72k178d106j900
63329f006a643G06c16B621A132K863K433I67N256M350k162j007d53C706A369d386
63312g999A112R972M32n242B457a008n236J918d15F277L546j345K599n418b24
63296a359B163K270A884a597p348a364C516K894G44L628L853O468k217k829N64
63281A0211C567L284K152r76C406q79j081L24D04O228j031B255b74r52I3J292
63265A385M297j039R893K516n261p67h23k488g16J13E049A937b668C055M990n99
63249G446J617k872M556Q136K070n394K97J301l377n183l191D78J631L384c157
63233i93A0955l221j972L508C743b593A44J151J86L116J152M36P97B058b105A078
63216a553A832O86a965D528L063K603l062l290m8K608J271B300o01L068N079L595
63200A3441K665Q7D877k153P262J744j700m746K948J925M824N7o683a036K33D951
63183A1310j496l463B414e44H029k935j19A834K5M312B388q83J726A431O62J717
63167C810M73j865r21L648L581m238j609m79e915l045J868B69a891m851e73q69
63151a442R0p896l071d035J660L39l63A687e725K644G03P501j691b804m687J642
63135e849b057n383l540e116a303D679K306A089K578J442k73j195b930l796j456
63120h182K427b672p01I291L700m484l876a931D347a258C23J233K023K553P508
63105A3640k761m682a376n337c280B911A217b170A38L916K270K249j700K135P594
63090A6602l566o351N253j013J757O159K033I615B842M59N432o43k06d95B318
63074D645O465K925m806B952e433%M28H3J379L384J366r56j731A403b10m68E773
63056A0023m784c816m936c850D94J938L621j683A228b712k050J450k613b920A356
63040C353M184L052n109Q730L060q208K300m943C080M924O457F904B851K762n24
63025E089j814j110q97D59a229l002A193J2414J207m451J354l058C851i87H98
63009E179L587L448l959A982L21o73a186l477P50i51D605B109G58b052O67B19
62992E690O938J776j548m183A433l38J839M38O070l671c838a288d89j498j426
62977c413o70J767j130k391C974N222C487H30c210A378J35P75M453J821C681A515
62960D85N160J374J388J011k278r35B411g203K669b92C735N547J72p81m10K412
62944A0675j659l980q77K575L427J108P09n751kR713K30n027p91j999L959L443
62928A5753P96k567l766k626p43J577M633E235O138l193l544O87j330q64J140
62913D269J882L132J0371F985a650C040O653L623K96F407k494L41c07C423Q798
62898A2221l83n873N76P110j031q16A682e913n564e176A274E95M884j494A626
62882d077n10J860C379m90L028j114A122L855p34J394M338k735J511l366a616
62866a267q34K17j436a375m241K168O10E44e739J092A283K999c566B245k20L454
62850E479k540b481B076M927A398I6J439P10L28d996m705M636J980A641K402P38
62834D781j164J755i48l543A271M750j848p07K32C71f364G42N878B403d296k425
62818f721l348a797G550J316O640p696A813b583g77J2A718M767l047M366M30A835
62801G213N021R32D673e50C52b29F380O291j393m287k614j623c395I30K678p57
62785B851J47N930k877A00e685D65L886M248P42A828L3J234J25j051i79C838A497
62767A361O566j78R16P82l978A277H0N890n8k617j188q58d258q314k6L816L31
62750h451K883o9e56F720J585C116A012K802a516o226E8P597A0J465A40J533K251
62733C924p95J224p8lR296j023A933a598N68D182b83C088L085j695b063m720j03
62716f886L020l923k098M264R18k91J034A46K683p44E40b498b69E337P452l185
62700I604j540k398Q3L335l739A060J919J623P35j361e605J96l667c050D624L246
62684G870R71K981n575K292A910c795l451a051j434J079D049J361N67Q637k083
62669A2531m359C156j443J412j159f55B608M008C174j157J706A858P108k84J467
62654A0149p41j821R25K875E041g3C904b019p539c938A45K197J266Q443m030l391
62638D630N94m57L98I88b891O30G124p09j536E59c125B312l15a839A969I79d624
62620b950D933L182j514j208O0K700O78P14O06k96m199l57p96K618L511M447J695
62603A6774l69K434q452l763J270C077a064H544K709m108j282k85O57M670k618
62588H287Ed399j401k179J32A589N261M896K033F513j482O72j816J844Q567l508
62572A0790C615J419A651J696K870B835L887M36j809K357k955a190A175b416j59
62557b575F926L231D993J533K453L73k96j396j368o29j780M698L049m729b204
62541b164D385O908n488b669I16J728i07C73O281N768i93n225b960G062k447N92
62525E207J195k933G46g72A39N502f10n797h23E757A539b369P58m062a161D1L76
62508D17K143M567k64B363K540o30d79l347l77Q53R37G8f27k426a275l136H66
62490B039a462I29P412N881m209N03m216J32M43K898K785E017P646L564p92G152
62473B33L39b449J102G150K224l602K271j00k618c32B217Q133J202l853C615A670
62456B435J087J492Q15j793O29c630J318B709O699J464N18j648O887L732r780
62441A0581n277c881j918c83D676N052J029D564j658K233J124A499a699a73j211
62426a384o696K20c499N31i00I979m944h56F583M841J735q51j863O235L66l969
62410A3077n17C744b452k862b26j30n994d59H85J917M938O19l111N48B203K878
62394E081A150c209F3L176L442r79k338b021E84a78G86d62A741F79e902P41C19
62376h33q89F823L724j422l927k381K516J494J673q89k882J0838G063a345k199
62361c544Q08G383N982C920b968a351a43C485Q46a680A676J480M44J338A328J688
62345C016K438A958G78K060M831k880M122L127E961j986K105k295PK614l119j538
62329A749K59K04d56A467R73a196B050a239n138r547K241f789B31L682A769l12
62313A457J804e198n553e107a461M05C013L389L70C009A233N547k470B024E15
62297B88J318N93b229I70M909N135E241f692J504a801A266K48a706M01C355M592
[...]
4544b5408o58j463J858N602J71J497m59m599K149P514r83k119M146p057l660j364
4528b4833j527j970J974n69k566N310L185j294N40k331J567j494K736M54L217
4513a7601O955d032k28q746j1318Q788n864j0011K602N685j151O185o31J420M47
4498a6854l473J91m547j982O371J880L547j007m624J518m080Q87l973l63N433
4483b1076M56J563j827K072K598p94j694k976j170j632N533Q254M566r295m823
4468b0245o207j302N60J611L252N8k64k578k178J763k38N75L336m240O474K863
4452a6760N5o629n770L30L933L524p127J421O410l407L793j806k800j592P928
4437a8497K765l533L170j215r570M541L193k797o54k32Q84l901o389L473J0053
4422a8709k388l622Q088L117n18o491m934j566j277o324N05M586Q75N673l069
4407b6054L411J919J528J652M720J90m098k254j854r62l165l233p25P422M696
4392a6807q319j029K904M3J748j719K673L738k428l602N505j894l0K940J472L234
4376a1571K072r82K16O81k192j057n318r74M960k173M514p264r244o440O441R669
4360a8662k827J554K468K352j706J685p351p96N093n255N778r83j510J792m240
4345b2608j687k378p24n913k686J2321N877q90k612o78m652l846O081J0420j527
4330a5502k851P71N641L978j864j0228j298R774l04n724q835k063M985Q936l22
4315a4906J793j234n862k37R45k024N95K214o628K559N473j622l579J328K030
4300a9155J916R48K789L039l80n80K609m66l333K159j737l888p515n007n733J4647
4284a9687L710j1895l304N116K851l392l22J714O957Q193L014l967k328p654K582
4269a8412p28p758m124m823M763O413j653K435k698k479K537L151j607J093N792
4254a8098k193M632L478l228K979J271o881o650N877O208K677L746J108o630p850
4239a9554m294K556p689K587N054k772J706J969N109J417m383l991r68K217J666
4224a9370R72M912O265l385m063j0764J363P845k337M78M18K267m620j307M354
4209a6972M095j310k604O5K741m265k22M482k159o609j524N522M737N574j721
4194a0170m899k671k005R7K034n684p930N94p81N722O347m235j130P287l344k841
4178b3609O195L411J276K565k294q28l702l357r1M839k870n547l602O744N547
4163a5323K072P50j508l186k207p69J868J054l163k642N614J957m159M44N423
4148a3775l432o260k707J835O676k059r212J319J378P296Q638j081p611q444J642
4133b5797L401O755m636J028K821m741O875P29m090L058O049l02m005m251q149
4118b5255n383P9P58J3799O025l824r590J416J420j683L955M369o11J945m601
4103a7181M71R32J940L07j959K462m209m435L861j236j438P439K36m061m071k97
4087b1239K86q168L637j157k082L287N756M649k310Q19j712N222f115J396o61
4072e380J140l415r124l960L286P049l327q03K195c577m247j1721k869L635R50
4057a7829R69M647j1996k206P691N390n031o361n27P460M871m752k044J177j922
4042b0463n64M517q62M623K887l288r304K758N31j555K990J186q283J78L276R119
4026a2254N135n568m243N053K633L288l900k440p244M818j608m095Q196q92J453
4011a1668L00r235m731P731l365l713P421K347q522m826L15L700P932L934o38
3996a3018j151J635M572j231j951O63n474o09k630k178m327Q043O458r44o093
3981a8235j342N460K552l245o51m750K822K571O78K136J59k750o858P41N80R733
3965a0399L224l813j422L089j174m76j0494k680m803j171L23J703N733R676M978
3950g706o99p430J587m832j0266L215M885J13J766L166o47O05o17M86K782l144
3934a6736l239m885J214K824M920l62j658K916g113k562k668Q75l088J836k211
3919a4931J678L873L93L75K64L309j884r381j788O57N685l24p615K72q15q68M957
3902a6143M21J148O562m56o307q405P6M90nO803K185L597n901m637J462O44p181
3885b5647N251P019K379j270P28c241p611o932j431L024O80j662k697m088m8P581
3869a6425K063j460L064j843p069j196J021M205M100p77J381J835k861j698m350
3854b0010M327P709l137r635k413l86N82M582K944J496L400k501K939l46l552
3839a4001l113o708n327N077P47J36R239M803m248m125k271k12p175l512M612
3824b6078n62J310Q589M292R98J209j198k015o680o550m787Q032K628K011J073
3809a7728j240K869O25K409M573P98J674n037R24K770J747m457n439l562O795
3794a2279k436j157K326j863M89J136L358k84l162P10l994k386K584L850m34j845
3778a5387K613L136c810M97o269q803j981J209K464K939k059l011K863O074q87
3763a0774n103n362k931q89N87j259o25q82j57K177l853K454j35k75l381J090
3747b9318J601J829K711R91L196K48p122m288M072K619L301R36n578N6M431l593
3731b3908k217J650M493J214K505j780k292k59N351K344k794K98l106j400M11
3716a9490L620O334a447n857r139j976m468o619o35J589M669l265l33P048N845
3701a4588l422R96J450m710n053m310N987J1569J270r58J579j0583Q41J15l201
3686b3018j896j50l56p60N658p60k565n309R82J012O851j040L25k003j572K201
3670b2400M314N36l354o980O14Q310J179N417q73p094O65L025L577M525L46k08
3654h401p140l931J323J683L176O11Q3l932N339N438o595o335R335k093o104J956
3638a5587p75l815l752j760M127L328r44m951O369P129l265j432j077n645p234
3623b9284K681J912j097K102K725M913L68r94k278n040k872L972Q271N258K847
3608f516m879L87k597j350J983J095j211m486l395J050J214K315J695o286p120
3593b8101J606n91O278R102b94k273o736j294m045J354j683J296O809l53r346
3578a6565l889m853J41L923M757j089l189k581Q97N413M561k196k86K96m367M55
3562a8572n67L807e986l426k100n831K907p29j027L777e848m487p696j138j671
3547b0840J735K084k640Q354J73n033K556K142l999j920l734o367l236L232L571
3532b3922K132J747K616J874l28M85M793j431o478j011M364L050j16K845q07k658
3516a2845l541l073m124K338R514p24k918j24O76l788k190j929l580r43P243Q94
3500a9114M584o894r111l591P673J053k319J1947L219K535k640k484J186k73l340
3485a7569n17n079J262R61j672K922M391p991O24M939k418k03P19p48q76J011
3469b0244L483o57K472f509n42r040o694k580j020O524N440k918o5L133e532p
3453e539o211k752N129p665J678R57J841L018j146j1393k335M193q27L172m960
3438b2840L55J701j640k56K991r09k492O803O895j253j1640n57o294m544N072
3423b8608Q006K733J415N465j737r789k690K591N803h022k296q712q997O341L741
3408a7945r50j482k414K073J013K401o925m178j635J629O034M965n811k548N581
3393b0192K183l0p310K335l72j061N849Q402b491B899b790p897K6q14L749K780
3377d946J369J09n245l115o799N82o98k931J177L021J828l255L156Q27k569j583
3361a9072J367J296K065m059j434J489K51l29J859j493n51m9mM10K440J763K65
3344a3786p226j571L077l299P639e799l77k252l368j838J940K446j417l910j804
3329a6379p831p92J820L759N151O84K040N80l720n704q56L417K724N128K804k501
3313i676m240j330k937k17K108j230o400j354R727N001m828p20P912m656n513
3298a8353m760l158M772N597k923k124J67l79L192Q467M242p445o156l940O210
3283a6591J384K600l24J08J923k171j55q750l614J840K012M094L963K021k611
3268a4271p077K40M606J213o63K601l466K719M254k618m327L590N035n044l984
3253a7192K317j76j53j721J800P078k930r818j736N85K771M817K325J423k461
3238a3071M568j45q351k008J643l170K767K437n59K920j381L827r70K51j544m82
3222a3268n800l928O259K760O094J17O50l140l896n496K279j461J33P748d538
3206a3759n916K634L116k61m797j499k6J7j548L69r44j59N371K810j409N244j747
3189a2504l362K388J117L910o601j0052k031M601j507k203N386K869o89Q19j589
3174a9448r6j194o149Q215e690k091n522m017k626J001m630M972L996N1m797j88
3158a9541M361o409O90J743m79j142L722n339P17O779j562k774J059J995J843
3143a4337K599l13n093l225i408J161q169q054J852K222m515M60j77j40j415K688
3127b3495R055N508m96n554M826j348l136J779K197m467j005o013j1992L071L944
3112b7126l114L138L784L251l340k386J355O335L55J272L129M103K288m716k910
3097a4582k160K3K829k35j314q18o229K030K939g989c567r307k1o92R31o108K322
3080a6442K830m454k021P74K298M313j400Q22l98q14K314K482n377n393M041k809
3064a9234N572n45K740k31p249J634j227n927K754M759h399j455o012P597n39
3049h808k813r31J247K220n161K31m657K198O11p094k136j232j078M617J793N829
3033a5164P166l684J88K236l194p087M851N704L777j002p168q452M432N147m519
3018a6769o77K788J89j530l237k2J688j936Q50m28L07J968P22j035P258j84l879
3001a3927K997J402p533m604p814o203R640M789m299j246l934M93N977j074k74
2986b5610O094N622K648j878l58k938j0844j828L544R24M127O000n562o014J203
2971b4870J192J070J044L677o93m757K816M089m15N265K570l838Q47Q14K286Q68
2955h035j543r86n65k676N85k824M40j982h700j032K179j934N9j482j031N875
2939f066m231n616N042M189j264n803k874J031j054k241O171M665k912j540o788
2924a9291j654O74l396J480j004j551P701M171N015K114K849l22a331l815r81
2909f127n200l108l883J941J587m25k47O507k335q639N84j688J143j28K63J426
2893a8329o304M141K920J653l296J330R45k235O070j121m218M638j696l867k483
2878b1852j215M299N77P577K304P84c543m374j2614j747N230l62l511L616J535
2863a5770n9k651k710J636N664M163K519l8K990k473l484j323k638m44J126j547
2847a5039L17J092N79o207j706M195K365l000n423k362L341l079J273O975K81
2832a6398r57J259N6p87j264K55l257R50N341p29f266G72a086o28k782J080l318
2815f734m138j773o583N413K063J246n972p241j484M217J605l559Q67N721j354
2800a7706K9l108j745o08K511J036O262J918j624m867l505P251M372l376l438
2785a6598j927P869J938o60k833m328l872m018Q239K497k778m619k224k099q33
2770b6246K948J644P76j0815k311M871K552Q497h862d144J9l915p513j691k991
2755b0235L197K272K532O57L090q96p293j073Q672J417r379M954j440j261O194
2740h592K281k540j562p03j258L80M343l309m268J547j582l035L2r22o76K383
2724a7481o99l604m1M039M924l685J705K00J886K447M612l085r986j153M575M351
2708a0995J36j742J821K47L089l220m221j0164j410K034N524O800m951N78j457
2693a7931R97k259N713K056l648n038l635Q015M799L82J234p227o718k628O561
2678a9327P504n139p686M584K614j953L083L151q284k107R873L607o077k141J688
2663a6610J925j054m399J773J475N169N25j462k278m335N393a9E376j701f563
2647h585K819l021M115a70n241j805n059o391n049K252Q200M823J327q07j278
2632i198j243o852n838J427M687j40j7P424d358m579q53m27m162M20o588p475
2616b8022L395N866j970l035k505K170J0809N311m161k258k560r45P489K863j374
2601h927j038L33b923A98g986n594J40k877l334l139k631R293K230o640J212j766
2585b1092k681j81N78O01m486J040K825M557J073j229j469N443L690r88o539j217
2569b0075k292J950J633M550O966k584m664q469L271L833K865J85m060r970j118
2554b7979O407P434J268j851L336k019m217J565O424j578n740Q28J188j930M36
2539a6428k1j645l663K166N610l628k051K748K629d179m35q496J197j503k813
2524a6229m720l65l391J094N743j075n238M727n007n741J189J4056O185m705j336
2509a4813j050n92m305o165m9N929J801m733l942J235Q167N995J648k099k649
2494a5622k423g826O54P61a481m213l794n893j320L176k14p022K096J228L409
2479a4028e127o185j0859r94m184K488M515M950J730l606j473J927O404q07r831
2464b1052Q93L964j176p7l349q35L821N891k420m555O30M1J587J05k459j935R99
2447a9927K123K762K730a853l414q543L508p32r74O21L761M41l178n678p531k986
2431b6558K4O342P840Q69p350m242k264K222n864K02N051k127P285J088q044r36
2415b6462K062J205k704J74a1960M517L168m574q997m323R088o835j610O341K538
2400a2647j1514r048M25Q775K436M99K048L203J20m453K723O493j05l923l865
2385a8833M46J629o04l29k626l233j02L368p136M160O286r91j019O279n98n041
2369a8344O47K233n33l108J436g772K436l967m411M960l059n344P079m720n317
2354b0115m249K169M064L158L590K460K46j754q724p009Q003o472k290L476K159
2339b1288k295N325P326J346L189j0894m118L30L625N499k668j320m284J763l174
2324b1638m886P86N999L779N801n60l057L132L079o681k113n597K534k960L790
2309a8592Q887m363j606N521j186p218n667l762K156J941J692q126j866L635j303
2294b9857j326N597J199j855j339l950N225R954r835l818J288j790K146J2990
2280a5371K447j158j437pl503k551O82M578K969n581L249K534n003o23h366c882
2263a0208o782k241q351P872M394L06J259k328L030d305k918m442q480q322k22
2248b8689P962Q044K245m926l949O364o442m021o358K563R131K279k36L27l054
2233a8760M308O261l20r472J608N547j388q96p079K692N065j896N850j60j796
2218a0436n122l438J470j232K953K657M155a879m794p787l335K18P56K23N668
2203a0930m13o122k492n223Q536O465Q66j0441k127L526j473l649O106j677K075
2188a6973N528N695q729k222N24M021N201b913m44n542m92L680j593r111j0868
2173b7283k200O168l426K5K665P109J774q937L014N447J458k185L352K051o51
2158a1619d054j638n997o451j03N37j727J138J897M26j169J604K230J902j268
2143a2673j757P83k58j544k348k507l59m1J783N189N90o07K448K795k119m483
2127a5108j423j003k242O159K82k27J265o83j242k15j606n268K89L300m947J036
2111b1633Q13M800m379m699O247K675n423O72j578M890p431N788P251l041K445
2096a2603L865l435M55J438k684N750j008l891p970j275m209k667J62N265L309
2081a9498k166N764g576K247j981n95l22o08r10p037p636o240P325P623n89N99
2065a5700L823n702N287N220m659l193k318l541n386N724J013l885O801k2k849
2050a9387K682p80L330N374m742l548J424L060K14L920L843m390n279n767j250
2035b1296P113j899n956J151n553M741N987J357J906o420o558n865M409L730M154
2020a8999N596L698P71J454j672K171l417o678L927o394p65L933L945M180J569
2005f681k862m859o621Q97M260K789k646J820L385n112L837j279l843N010L268
1990h637L503j931n351j677j305n821L098L604K378m318n132N207j950J512O454
1975a0366o627R62O36M622L056P75m173l707J547k594m73K133O102k650K064k990
1959a1683j620L968J405k35o047l753L839P00K387j252J276l976m066L630L008
1944a2419o268k510P683J483e833O56L17k716k641o769j02o24K268K955o76K893
1928a0272K971a555l432n605r58M59n430l603L986k092o59J991R27j108k381n692
1912b5152L602K449M644m9n878L231P198j944M176K010l653O96m590l014j95K140
1896a4329m09m561M129L828L448n959j0336J477P046j675L157n077Q16N777l532
1881a6200q96K223K445J260L8m140l399M049N85M698j664n677r72n540N887c531
1864c873q680m503J732f055b209n249p533M641L321o715J849j781k540N790K711
1849g715m780o669L310L812j562K505j750k370n285k835l699L354L484l410L228
1834b0382J582o041J0Q714N980q63k262m525K311K641n087r81K527N206m191o809
1818b2170P365l673J203L703J096f118J050o037j364M612A084D78c524l534m714
1803a1772l737k358K163J780L656K074N07O77l346k845j544o563n159M452M850
1788a7165q50m4M270j687R89L142K672j275n482k364L514m80m358K797J519r42
1772a5744m656L173M667j133R3k320J712j631K960N74r29k182j407J059%j725
1756a7489k161K953k396j830q00o76K276K038K28J238J383R04o162i812J124c899
1739e177n136o21L713m615k676n257K011O100J780l09b557A68f901K974a846p36
1723b582Q80j182l953j869J802l975M269K39n828K05o5L094k278M854J103J940
1707c346k450o22P9l302j573l197j448f694l361l002p119o060N196P059Q00o572
1691a9753L232J277j075J052g093c043o328K232b815o84m116l337e420J3j171
1676f578k592j165c560p214n728O13O933N26o102k755m46J834R35M195k955p498
1660b1222K749k26J443h131J851l639M37d181k233l679O20J535j515j209M314
1645f348N94k232m443j088p36n013M203Q80K965q0Q6M193j114K144m26m076m443
1628a4934K087f369p830j0380R34k274O397Q955p8j464N868j744q436j360O690
1613a1091K92K174j507J189o469k882L890J307m520q44N870k569L6K248K284m417
1597a5009o271l485J0435f420J455l026L761n945o147o147N66J045P89j183k923
1582b4175J239Q144J394r01j687k987j630M220P798R20n212M978L453k741m710
1567a1897j587J913J146d509j645m708l51R52J757Q17d06p633l270l131k72K634
1551a2078N14k123m41M517j932r284K972m330m714P37N391O44j98n988J918L997
1535b0398K597M565K480k61j276M037N70b137p759p203R88m459N146J098m246
1520a8572K175Q172m004m038l514o072j833K760N357m794l269J986P101J361k408
1505a9592J115L560J742n23N26p391M090K783J770p889j073J0200J51p931N844
1490a2618K218o69e286P67j636J093k10m629k844e898K078R39l570K119a440k510
1474c950G609q77a308o503b746D311a524j1357p681M068K644j055J710L20l15
1459a3190f516K395n944J028j425m27J135d501l174o315k914N932Q19p258N86
1444a6825e330n259o008J534K308K492M220J473k870n395j795K865k743K842L582
1429h084J268l640j782M859L583k079J026k108k119k653o866k655P69R896l742
1414a4327o292M588K009m175j451L571l63l469k378M583N507J118J220l205n46
1399a3610n222M729L005M040J659j615k768M358a275p281l633k070q67J97j700
1384a6629K521j733M881L042a896C63B5c773n387l964J834b009B074gl141j2995
1368a6143l308M463j042J516m840m733M685L620n82l770L201l144J179O392o967
1353a9473k505K902M124K072K991K09m25K67l443j959f939j478M86a478A822D6
1336i56k21A250c259j1396N088M094p007o800j007J616J041l475n04K589K308
1321a6712J361e501j090o350J005K468l364k916J043K911L284a994l691k696c596
1305f253q676k78o21n040Q15K525Q028M712m848j0517o410M232N745k068L481
1290a5173M690M135l046m755l128P474b535C675A185a118j421o115o268k290M088
1275a3124K57m477p664P20Q050O667q348n782j128M9J0797e260m429k229M010
1260g908J105N3P71K775p101l7l024l722J40O385d203n880n474m42P106k774j1752
1243b3419k345O907M156J227k984K236O95l56l731j953N151O423K206m65n072
1228a1324j354J90N292b851o753o886K988p449j303P637k874P78L660j453N408
1213i098J245q733q948M648N974N571A031a054l817l566r634l667P544O922r92
1198h264m311n748K603R58j045K522K289m865k641h022b205k078J370K2l716J87
1182f420l282K013M21m920r76K766J425q24J862E24J504G75d965k108b984l744
1166f728l018k491J789o436O51N121P59j693q307O260M585N15k828o80m608J879
1150a5230O016j499m78d872l862p813J944q785N501f214a836B098L2A56h579m785
1134a3364j913j562M185c685j6k088r260Q87J490l825m266l946L942L800o78J242
1118a6403j152l959J780k947O47J436O384O753b593l996p420j776N202j606j295
1103a3484N532l966L149p36L965a614m5q373J215J992q83P33J968l058j140a845
1086f845n736Q50K818j699e136K171n760n060J654k932M311L526p465P31M474
1071i486P86J871K229p24l246l684M104K440j233l152j878P15L101q534o592L539
1055a9744J895J323L332J493N034q461n507M782f290M18l777J384J439o456l118
1040a6400O53l694N27j41N723L725k840q84J020k69m099m776M980k81O880J158
1024h718l014N774B993b630k110J482l011l217n067l687n480N174M923K198k559
1009a3984J476K263M65O17k339K876n919k276m87O046L338k633J912o10m626L416
993a0465Lj84c953a752m389o473j170K988L561j814Q57m6m478m431O661c563P04
976b859J307l5k409m091j238K907k198j604j577l47j039N45N468L157m658K31
960h440l206J897j818m448L479m189m389M856f155J495j408l228d035m16j088
945e539k079r44f8k438a223k400l028j564a552e9o838j663k217J388K291j40j875
928i113K629l090k496k248k596M120j142J720K706m91M79m535L165e041j340L142
912c239O08r112p221N663om218K68O943J936m611k363m550M220L15l259L46o838
895b5118j20O059N896f213k788o888J068K416K35K866K239l902k223L00N55k102
879a4437n565o693n026M414P460O471k42k433j404j325e252k054m323j675O620
864f684l21l869m297p353m224j351L855O954M848m681L812n189m232P598N487
849i647r56m550L804K97r40k268j36K588l763O704L104q86r22J777k134l442L223
832h147k622J534c420j500j933k333J996m198L13L64J5N025h97d04r14n077K347
815d048r85n014l916j020j044M150L282L379J345j702k013a960k364m556l885
800a2765p10k911K576J024J232M474J245r63R93q11k627o117l11e700O90J130
784c880m689L250P17o429j811M653J332n102p808k352O647J634k322l588L307
769a6441K059N75p135k45L990L344L611b384l83n576q13R48o761q529M482K914
753a6102K040k276J114M340L198k075L77c409k909b438k764O23k561p141m163
738a8444K207N339N203N80q124l042J062O15m099N112K945m687k505j780k91K730
722a7179M89L467m223l432K054J870g526b590R89b43k210n594j226m096m936k627
706b0932J535M110q99j994J199m730k345L266O165k260k226J323L597K97k204
691a6098d808k183n846m216P497K545n489K93P15K201b224n32l320b964m325p487
675a4776K392O41k324m710J110J903L46Q47P35L978L843l677n3l98q415o308K755
658b2111O492K349K654L785k84m641q621K44M305N97J172M289J578m317q91j24
642a3524k986N694a097E43d829n138j222K015O48J014o2m138n689o571N41O875
626a6556J817J628m95L355J740q902n097O924f377q811o698Q04L743L049N201
611i089c873o433l696o69j572J047g538j119l989f058b546j269a379F32e198m619
595i817l083k969J169L724Ll312O01b594B646f95p316n322M83M316j675l980f621
577h251p728o263O975g128K551Q56j930l367j164P51k889R41p265L868K144P59
561a1873m123m197J762n43O896K360J342j926j794k28L031c837m561c923L25m075
545g673k834m052N425L846Q16k497L57j45j560c976m65l604m423j897l187L951
529a3601L36J206L171k15l31k060o85e252B345f36q332m735j82j371J917f286
512e580j985K708k523Q95h60A879a0951j691M088M66b832I95b904j1967J221b910
495d981k850n783j675L795K181K396m77p8j803J663K9j058m967L322O53Q01j399
478a0231r73J582j867K396M013q4n450d662a109o387l559K973j312K234J106j220
462g274l639L62K311l733o426K884n592J357K802J20L630M713K853K384J195k932
446d985l089O9n659J16K66J154L100R75k133j762M040c177n212n026L54J169k48
429a2140M124j469K495j863j339l229l367N514M508n724o37p55j886m298J750
414a8316K140O76L783K657j560J839R52k530J654L094a085B959c347p510l251
399a4108J012K584O50j915k389L906c874l508M54c222J042m48k315j007l704J876
383g778J194k193J003n161l139N065K574a259j352k531m788j3d876b102m98n929
367h529k473M208n941K026L108n732j732R71r26N77k884n24J942K833M838K091
351f147J843h90c96p855k778L169j433J356j432c086j757p063l673M735L247r83
335h580n276l920j505o88O907M498n672m91O408b940M07k046q02J419m81n290
319i733m848N185l501m919R88P724b769k845M14j383j128k99k747N44c062A38
302b940k289J501j615J263p5K53j42R69J75j338p26k028m0m197J541K115o33k467
284a0673K003K218J541k292k710j904l492L587e349j732J028J769J931k410l427
269h190J19J252K325L36J158p602j163N871J443l795r07J90K625J200P19L02J328
252b789n743n749j443M493M34l454l500j212O44O58J221f909l95j606K257j081
236g734m479K060d824K232J212j232L21L12b42l35k66J06j352k691j958j364K581
219e521M19n84o408m262K620b856a025k838A030c984l550k473M226K698a163D09
202e446m435j156K373r73l370j118L975K374P62j363J03K38c633K23l225k895
186i530L74J628L549f81j245l032j682n035l953J60K229r11N500L277k84a734
169A373l13N252L565C761d163a899k845m190K789a048M23F24h736k572e393k527
153g920J342R05k603n102k7J31J596R59J286K788m195k625L218L332R05m229k074
136a2313M670O35n027l420n14k548J648L209p42Q70k18L098c948k787k824k130
120a1689L86K029k191M408O39k185O66c087M82j21m28M98k762jO10j695j876j85
102h565K008j38k440r13K88J18j397k255M53d439A024e471p75k918j433r83K38
85a1342L748J473r45b288I16c637o94o207J384L915K293a097q49R41o272l759
69a1036q72l40n72J093K945L306K64m516n84J494l74K852p34K066c18q54j191
52b363j080l834j253n69a309o93o185K473K331a168n2m005j129Q45k69Q73l9k370
34g314n301j133m04K475K810c889Ja480m424o148K114M160o34k733K79L76J461
17g029L395k608l727R75J900K224N98M26j555M13J484B482I59c509m336j786J530
0h101
##END=
