##TITLE=IOC-HACK-Hunscha
Cyclopropylmethylalkohol    12mg
PROTON.AUT CDCl3 {D:\Bruker\TopSpin} AVIII600 1
##JCAMPDX= 6.0         $$ Bruker NMR JCAMP-DX V2.0
##DATA TYPE= NMR SPECTRUM
##DATA CLASS= XYDATA
##ORIGIN= Bruker BioSpin GmbH
##OWNER= AVIII600
##LONG DATE= 2024/10/28 11:49:04+0000
$$ TopSpin 4.4.1
$$ 2025-01-18 14:46:22.891 +0100  User@BUCHWEITZ12
$$ Compression mode = fixed
##.OBSERVE FREQUENCY= 600.1337058
##.OBSERVE NUCLEUS= ^1H
##.ACQUISITION MODE= SIMULTANEOUS (DQD)
##.ACQUISITION SCHEME= undefined
##.AVERAGES= 16
##.DIGITISER RES= 22
##SPECTROMETER/DATA SYSTEM= spect
##.PULSE SEQUENCE= zg30
##.SOLVENT NAME= CDCl3
##.SHIFT REFERENCE= INTERNAL, CDCl3, 1, 16.18152
##AUDIT TRAIL= $$ (NUMBER, WHEN, WHO, WHERE, PROCESS, VERSION, WHAT)
$$ ##TITLE= Audit trail, TopSpin 3.6.4
$$ ##JCAMPDX= 5.01
$$ ##ORIGIN= Bruker BioSpin GmbH
$$ ##OWNER= AVIII600
$$ $$ D:/Bruker/Topspin/data/AVIII600/nmr/20241028-AVIII600/170/pdata/1/auditp.txt
$$ ##AUDIT TRAIL=  $$ (NUMBER, WHEN, WHO, WHERE, PROCESS, VERSION, WHAT)
(   1,<2024-10-28 12:49:04.421 +0100>,<AVIII600>,<AV3600>,<go4>,<TopSpin 3.6.4>,
      <created by zg on data set with UUID '776abec0-9522-11ef-b82e-3417eba89713'
       started at 2024-10-28 12:47:53.762 +0100,
       POWCHK enabled, PULCHK disabled,
       completed at 2024-10-28 12:49:04.406 +0100
$$ 
       configuration hash MD5:
       23 CC 49 F0 8D AC 86 1C 93 0C F2 9B 65 EE F7 85
       data hash MD5: 64K
       1C C5 5A 96 D0 21 C6 D6 8E 7E C2 4A B7 83 48 CA
>)
(   2,<2024-10-28 12:49:04.593 +0100>,<AVIII600>,<AV3600>,<audit>,<TopSpin 3.6.4>,
      <user comment:
       ICON-NMR User ID: AVIII600
       data hash MD5: 64K
       1C C5 5A 96 D0 21 C6 D6 8E 7E C2 4A B7 83 48 CA>)
(   3,<2024-10-28 12:49:05.874 +0100>,<AVIII600>,<AV3600>,<proc1d>,<TopSpin 3.6.4>,
      <Start of raw data processing
       ef LB = 0.3 FT_mod = 6 PKNL = 1 SI = 64K 
       data hash MD5: 64K
       08 4F A3 EF 07 F3 75 41 48 56 FC 2A 03 07 85 46>)
(   4,<2024-10-28 12:49:07.155 +0100>,<AVIII600>,<AV3600>,<proc1d>,<TopSpin 3.6.4>,
      <apk0 
       data hash MD5: 64K
       8E 20 DD 8D 20 1A 26 C7 9E 1C BE 0A B8 BD C2 3B>)
(   5,<2024-10-28 12:49:07.421 +0100>,<AVIII600>,<AV3600>,<proc1d>,<TopSpin 3.6.4>,
      <abs ABSG = 5 
       data hash MD5: 64K
       E6 34 D3 E1 EB BD 6B 61 CA 5F 4F A1 9A 6A 94 E8>)
$$ $$ Z:/data/Datenbank/Erstellte Datenbank/Cyclopropylmethylalkohol/170/pdata/1/auditp.txt
(   6,<2024-11-07T12:25:06.584+0100>,<Tobias>,<NMR09>,<proc1d>,<TopSpin 4.4.0>,
      <Start of raw data processing
       em LB = 0.3 SI = 64K 
       data hash MD5: 64K
       AF E1 CA 54 6C 48 69 22 93 7A 24 1C B9 41 98 B0>)
(   7,<2024-11-07T12:25:07.803+0100>,<Tobias>,<NMR09>,<proc1d>,<TopSpin 4.4.0>,
      <ft FT_mod = 6 PKNL = 1 SI = 64K 
       data hash MD5: 64K
       ED DA C3 91 DD B0 2F 90 BC 0E 90 92 7E 2D 8D FC>)
(   8,<2024-11-07T12:25:09.276+0100>,<Tobias>,<NMR09>,<proc1d>,<TopSpin 4.4.0>,
      <apk 
       data hash MD5: 64K
       88 EF 1F 34 A4 24 75 6A 38 8F 84 1B 3B EA 3E 8F>)
(   9,<2024-11-07T12:25:10.279+0100>,<Tobias>,<NMR09>,<proc1d>,<TopSpin 4.4.0>,
      <abs n ABSG = 5 
       data hash MD5: 64K
       1F CA D9 90 A7 26 AF 9A E4 1D 83 8C C2 B3 D1 D7>)
(  10,<2024-11-07T12:25:27.149+0100>,<Tobias>,<NMR09>,<dataserver>,<TopSpin 4.4.0>,
      <INTEGRAL DELETE [7.181;6.658]
       data hash MD5: 64K
       1F CA D9 90 A7 26 AF 9A E4 1D 83 8C C2 B3 D1 D7>)
(  11,<2024-11-07T12:25:27.312+0100>,<Tobias>,<NMR09>,<dataserver>,<TopSpin 4.4.0>,
      <INTEGRAL DELETE [4.175;3.677]
       data hash MD5: 64K
       1F CA D9 90 A7 26 AF 9A E4 1D 83 8C C2 B3 D1 D7>)
(  12,<2024-11-07T12:25:27.651+0100>,<Tobias>,<NMR09>,<dataserver>,<TopSpin 4.4.0>,
      <INTEGRAL DELETE [3.677;3.289]
       data hash MD5: 64K
       1F CA D9 90 A7 26 AF 9A E4 1D 83 8C C2 B3 D1 D7>)
(  13,<2024-11-07T12:25:27.952+0100>,<Tobias>,<NMR09>,<dataserver>,<TopSpin 4.4.0>,
      <INTEGRAL DELETE [3.289;3.160]
       data hash MD5: 64K
       1F CA D9 90 A7 26 AF 9A E4 1D 83 8C C2 B3 D1 D7>)
(  14,<2024-11-07T12:25:28.500+0100>,<Tobias>,<NMR09>,<dataserver>,<TopSpin 4.4.0>,
      <INTEGRAL DELETE [3.160;2.959]
       data hash MD5: 64K
       1F CA D9 90 A7 26 AF 9A E4 1D 83 8C C2 B3 D1 D7>)
(  15,<2024-11-07T12:25:28.738+0100>,<Tobias>,<NMR09>,<dataserver>,<TopSpin 4.4.0>,
      <INTEGRAL DELETE [2.309;1.875]
       data hash MD5: 64K
       1F CA D9 90 A7 26 AF 9A E4 1D 83 8C C2 B3 D1 D7>)
(  16,<2024-11-07T12:25:28.938+0100>,<Tobias>,<NMR09>,<dataserver>,<TopSpin 4.4.0>,
      <INTEGRAL DELETE [1.629;1.229]
       data hash MD5: 64K
       1F CA D9 90 A7 26 AF 9A E4 1D 83 8C C2 B3 D1 D7>)
(  17,<2024-11-07T12:25:29.217+0100>,<Tobias>,<NMR09>,<dataserver>,<TopSpin 4.4.0>,
      <INTEGRAL DELETE [1.057;0.795]
       data hash MD5: 64K
       1F CA D9 90 A7 26 AF 9A E4 1D 83 8C C2 B3 D1 D7>)
(  18,<2024-11-07T12:25:29.440+0100>,<Tobias>,<NMR09>,<dataserver>,<TopSpin 4.4.0>,
      <INTEGRAL DELETE [0.794;0.601]
       data hash MD5: 64K
       1F CA D9 90 A7 26 AF 9A E4 1D 83 8C C2 B3 D1 D7>)
(  19,<2024-11-07T12:25:29.772+0100>,<Tobias>,<NMR09>,<dataserver>,<TopSpin 4.4.0>,
      <INTEGRAL DELETE [0.475;0.227]
       data hash MD5: 64K
       1F CA D9 90 A7 26 AF 9A E4 1D 83 8C C2 B3 D1 D7>)
(  20,<2024-11-07T12:25:30.020+0100>,<Tobias>,<NMR09>,<dataserver>,<TopSpin 4.4.0>,
      <INTEGRAL DELETE [0.226;0.080]
       data hash MD5: 64K
       1F CA D9 90 A7 26 AF 9A E4 1D 83 8C C2 B3 D1 D7>)
(  21,<2024-11-07T12:25:30.289+0100>,<Tobias>,<NMR09>,<dataserver>,<TopSpin 4.4.0>,
      <INTEGRAL DELETE [0.079;-0.137]
       data hash MD5: 64K
       1F CA D9 90 A7 26 AF 9A E4 1D 83 8C C2 B3 D1 D7>)
(  22,<2024-11-07T12:25:30.490+0100>,<Tobias>,<NMR09>,<dataserver>,<TopSpin 4.4.0>,
      <INTEGRAL DELETE [-0.138;-0.343]
       data hash MD5: 64K
       1F CA D9 90 A7 26 AF 9A E4 1D 83 8C C2 B3 D1 D7>)
(  23,<2024-11-07T12:25:46.439+0100>,<Tobias>,<NMR09>,<cprserver>,<TopSpin 4.4.0>,
      <changed parameter F1 SR to 0>)
$$ $$ Z:/data/Datenbank/Erstellte Datenbank/Cyclopropylmethylalkohol/170//pdata/1/auditp.txt
(  24,<2024-11-07T12:25:54.362+0100>,<Tobias>,<NMR09>,<sref>,<TopSpin 4.4.0>,
      <sref
       data hash MD5: 64K
       1F CA D9 90 A7 26 AF 9A E4 1D 83 8C C2 B3 D1 D7>)
$$ $$ Z:/data/Datenbank/Erstellte Datenbank/Cyclopropylmethylalkohol/170/pdata/1/auditp.txt
(  25,<2024-11-07T12:26:16.975+0100>,<Tobias>,<NMR09>,<dataserver>,<TopSpin 4.4.0>,
      <Spectrum calibrated, SF was set. Old value: 600.130129 New value: 600.130004. Peak list modified: Yes
       data hash MD5: 64K
       1F CA D9 90 A7 26 AF 9A E4 1D 83 8C C2 B3 D1 D7>)
(  26,<2024-11-07T12:26:17.160+0100>,<Tobias>,<NMR09>,<dataserver>,<TopSpin 4.4.0>,
      <Spectrum calibrated, OFFSET was set. Old value: 15.973380 New value: 16.181518. Peak list modified: Yes
       data hash MD5: 64K
       1F CA D9 90 A7 26 AF 9A E4 1D 83 8C C2 B3 D1 D7>)
(  27,<2024-11-07T12:28:45.425+0100>,<Tobias>,<NMR09>,<proc1d>,<TopSpin 4.4.0>,
      <pk fgphup PHC0 = -0.8 PHC1 = 0 
       data hash MD5: 64K
       F0 11 67 CD DA 78 7B 39 0C 78 77 B8 A4 C1 8C 92>)
(  28,<2024-11-07T12:29:46.591+0100>,<Tobias>,<NMR09>,<dataserver>,<TopSpin 4.4.0>,
      <INTEGRAL DEFINE [3.470;3.418]
       data hash MD5: 64K
       F0 11 67 CD DA 78 7B 39 0C 78 77 B8 A4 C1 8C 92>)
(  29,<2024-11-07T12:29:46.792+0100>,<Tobias>,<NMR09>,<dataserver>,<TopSpin 4.4.0>,
      <INTEGRAL DEFINE [1.148;1.051]
       data hash MD5: 64K
       F0 11 67 CD DA 78 7B 39 0C 78 77 B8 A4 C1 8C 92>)
(  30,<2024-11-07T12:29:47.833+0100>,<Tobias>,<NMR09>,<dataserver>,<TopSpin 4.4.0>,
      <INTEGRAL DELETE [1.148;1.051]
       data hash MD5: 64K
       F0 11 67 CD DA 78 7B 39 0C 78 77 B8 A4 C1 8C 92>)
(  31,<2024-11-07T12:29:48.049+0100>,<Tobias>,<NMR09>,<dataserver>,<TopSpin 4.4.0>,
      <INTEGRAL DEFINE [1.166;1.043]
       data hash MD5: 64K
       F0 11 67 CD DA 78 7B 39 0C 78 77 B8 A4 C1 8C 92>)
(  32,<2024-11-07T12:29:48.365+0100>,<Tobias>,<NMR09>,<dataserver>,<TopSpin 4.4.0>,
      <INTEGRAL DEFINE [0.581;0.480]
       data hash MD5: 64K
       F0 11 67 CD DA 78 7B 39 0C 78 77 B8 A4 C1 8C 92>)
(  33,<2024-11-07T12:29:48.597+0100>,<Tobias>,<NMR09>,<dataserver>,<TopSpin 4.4.0>,
      <INTEGRAL DEFINE [0.266;0.160]
       data hash MD5: 64K
       F0 11 67 CD DA 78 7B 39 0C 78 77 B8 A4 C1 8C 92>)
$$ $$ G:\data\Datenbank\Erstellte Datenbank/Cyclopropylmethylalkohol/170/pdata/1/auditp.txt
(  34,<2024-11-26T14:30:21.790+0100>,<hackl>,<NMR18>,<proc1d>,<TopSpin 4.4.0>,
      <Start of raw data processing
       em LB = 0.3 SI = 64K 
       data hash MD5: 64K
       AF E1 CA 54 6C 48 69 22 93 7A 24 1C B9 41 98 B0>)
(  35,<2024-11-26T14:30:22.765+0100>,<hackl>,<NMR18>,<proc1d>,<TopSpin 4.4.0>,
      <ft FT_mod = 6 PKNL = 1 SI = 64K 
       data hash MD5: 64K
       ED DA C3 91 DD B0 2F 90 BC 0E 90 92 7E 2D 8D FC>)
(  36,<2024-11-26T14:30:23.750+0100>,<hackl>,<NMR18>,<proc1d>,<TopSpin 4.4.0>,
      <apk 
       data hash MD5: 64K
       88 EF 1F 34 A4 24 75 6A 38 8F 84 1B 3B EA 3E 8F>)
(  37,<2024-11-26T14:30:24.384+0100>,<hackl>,<NMR18>,<proc1d>,<TopSpin 4.4.0>,
      <abs n ABSG = 5 
       data hash MD5: 64K
       1F CA D9 90 A7 26 AF 9A E4 1D 83 8C C2 B3 D1 D7>)
(  38,<2024-11-26T14:54:34.095+0100>,<hackl>,<NMR18>,<cprserver>,<TopSpin 4.4.0>,
      <changed parameter F1 PHC0 to 0>)
(  39,<2024-11-26T14:54:35.221+0100>,<hackl>,<NMR18>,<cprserver>,<TopSpin 4.4.0>,
      <changed parameter F1 PHC1 to 0>)
(  40,<2024-11-26T14:54:40.007+0100>,<hackl>,<NMR18>,<proc1d>,<TopSpin 4.4.0>,
      <Start of raw data processing
       ef LB = 0.3 FT_mod = 6 PKNL = 1 SI = 64K 
       data hash MD5: 64K
       08 4F A3 EF 07 F3 75 41 48 56 FC 2A 03 07 85 46>)
(  41,<2024-11-26T14:55:49.625+0100>,<hackl>,<NMR18>,<proc1d>,<TopSpin 4.4.0>,
      <pk fgphup PHC0 = 80.76114 PHC1 = -3.4 
       data hash MD5: 64K
       AA 28 E5 A2 65 90 FE 94 BA AC 35 6C 70 94 C2 7C>)
(  42,<2024-11-26T15:04:20.635+0100>,<hackl>,<NMR18>,<dataserver>,<TopSpin 4.4.0>,
      <Start of interactive peak picking
       data hash MD5: 64K
       AA 28 E5 A2 65 90 FE 94 BA AC 35 6C 70 94 C2 7C>)
(  43,<2024-11-26T15:04:36.285+0100>,<hackl>,<NMR18>,<peak>,<TopSpin 4.4.0>,
      <1D Peak picking
       data hash MD5: 64K
       AA 28 E5 A2 65 90 FE 94 BA AC 35 6C 70 94 C2 7C>)
(  44,<2024-11-26T15:04:40.289+0100>,<hackl>,<NMR18>,<peak>,<TopSpin 4.4.0>,
      <1D Peak picking
       data hash MD5: 64K
       AA 28 E5 A2 65 90 FE 94 BA AC 35 6C 70 94 C2 7C>)
(  45,<2024-11-26T15:04:45.254+0100>,<hackl>,<NMR18>,<dataserver>,<TopSpin 4.4.0>,
      <All peaks removed
       data hash MD5: 64K
       AA 28 E5 A2 65 90 FE 94 BA AC 35 6C 70 94 C2 7C>)
(  46,<2024-11-26T15:04:46.179+0100>,<hackl>,<NMR18>,<dataserver>,<TopSpin 4.4.0>,
      <End of interactive peak picking
       data hash MD5: 64K
       AA 28 E5 A2 65 90 FE 94 BA AC 35 6C 70 94 C2 7C>)
(  47,<2024-11-26T15:06:30.252+0100>,<hackl>,<NMR18>,<dataserver>,<TopSpin 4.4.0>,
      <INTEGRAL DEFINE [3.496;3.400]
       data hash MD5: 64K
       AA 28 E5 A2 65 90 FE 94 BA AC 35 6C 70 94 C2 7C>)
(  48,<2024-11-26T15:06:30.326+0100>,<hackl>,<NMR18>,<dataserver>,<TopSpin 4.4.0>,
      <INTEGRAL DELETE [3.470;3.418]
       data hash MD5: 64K
       AA 28 E5 A2 65 90 FE 94 BA AC 35 6C 70 94 C2 7C>)
(  49,<2024-11-26T15:06:30.522+0100>,<hackl>,<NMR18>,<dataserver>,<TopSpin 4.4.0>,
      <INTEGRAL DELETE [1.166;1.043]
       data hash MD5: 64K
       AA 28 E5 A2 65 90 FE 94 BA AC 35 6C 70 94 C2 7C>)
(  50,<2024-11-26T15:06:30.606+0100>,<hackl>,<NMR18>,<dataserver>,<TopSpin 4.4.0>,
      <INTEGRAL DELETE [0.581;0.480]
       data hash MD5: 64K
       AA 28 E5 A2 65 90 FE 94 BA AC 35 6C 70 94 C2 7C>)
(  51,<2024-11-26T15:06:31.023+0100>,<hackl>,<NMR18>,<dataserver>,<TopSpin 4.4.0>,
      <INTEGRAL DELETE [0.266;0.160]
       data hash MD5: 64K
       AA 28 E5 A2 65 90 FE 94 BA AC 35 6C 70 94 C2 7C>)
(  52,<2024-11-26T15:06:31.108+0100>,<hackl>,<NMR18>,<dataserver>,<TopSpin 4.4.0>,
      <INTEGRAL DEFINE [1.178;1.031]
       data hash MD5: 64K
       AA 28 E5 A2 65 90 FE 94 BA AC 35 6C 70 94 C2 7C>)
(  53,<2024-11-26T15:06:31.177+0100>,<hackl>,<NMR18>,<dataserver>,<TopSpin 4.4.0>,
      <INTEGRAL DEFINE [0.585;0.475]
       data hash MD5: 64K
       AA 28 E5 A2 65 90 FE 94 BA AC 35 6C 70 94 C2 7C>)
(  54,<2024-11-26T15:06:31.312+0100>,<hackl>,<NMR18>,<dataserver>,<TopSpin 4.4.0>,
      <INTEGRAL DEFINE [0.264;0.158]
       data hash MD5: 64K
       AA 28 E5 A2 65 90 FE 94 BA AC 35 6C 70 94 C2 7C>)
(  55,<2024-11-26T15:06:31.501+0100>,<hackl>,<NMR18>,<dataserver>,<TopSpin 4.4.0>,
      <INTEGRAL DEFINE [1.673;1.610]
       data hash MD5: 64K
       AA 28 E5 A2 65 90 FE 94 BA AC 35 6C 70 94 C2 7C>)
$$ ##END=
$$ 
$$ $$ hash MD5
$$ $$ 64 29 22 81 A4 FA 32 DD B0 B7 9D BB B1 58 ED 5B
##$RELAX= 
##$BRUKER FILE EXP=format.temp
$$ EDIT_PAR COMMAND FILE
$$ 
$$ DI_MODE         LONG
$$ ED_ENTRY        ACQU
$$ ORDER           FILE
$$ 
$$ 
$$ HEADER		"F2 - Acquisition Parameters"
$$ T_NAME		Date_
$$ 		TYPE	R64
$$ 		CLASS	ACQU
$$ 		SUBRANGE 0.0 50000000
$$ 		REL	"Date_=itodate(DATE)"
$$ 		INV_REL	"DATE=datetoi(Date_,DATE)"
$$ 		FORMAT	"%14.0f"
$$ 		TEXT	" "
$$ END
$$ T_NAME		Time
$$ 		TYPE	R32
$$ 		CLASS	ACQU
$$ 		SUBRANGE 0.0 1000000
$$ 		REL	"Time=itotime(DATE)"
$$ 		INV_REL	"DATE=timetoi(Time,DATE)"
$$ 		FORMAT	"%14.2f h"
$$ 		TEXT	" "
$$ END
$$ NAME		INSTRUM
$$ 		TEXT	" "
$$ END
$$ NAME		PROBHD
$$ 		FORMAT	"%14.14s"
$$ 		TEXT	" "
$$ END
$$ NAME		PULPROG
$$ 		TEXT	" "
$$ END
$$ NAME		TD
$$ 		TEXT	" "
$$ END
$$ NAME		SOLVENT
$$ 		TEXT	" "
$$ END
$$ NAME		NS
$$ 		TEXT	" "
$$ END
$$ NAME		DS
$$ 		TEXT	" "
$$ END
$$ T_NAME		SWH
$$ 		TYPE	R32
$$ 		CLASS	ACQU
$$ 		SUBRANGE 0.0 1e8
$$ 		REL	"SWH=SW*SFO1"
$$ 		INV_REL "SW=SWH/SFO1"
$$ 		UNIT	"Hz"
$$ 		FORMAT	"%14.3f Hz"
$$ 		TEXT	" "
$$ END
$$ T_NAME          FIDRES
$$                 TYPE    R32
$$                 CLASS   ACQU
$$                 SUBRANGE 0.0 100000
$$                 REL     "FIDRES=2*SW*SFO1/TD"
$$                 INV_REL "TD = nextpow(2*SW*SFO1/FIDRES)"
$$ 		UNIT	"Hz"
$$ 		FORMAT	"%14.6f Hz"
$$ 		TEXT	" "
$$ END
$$ T_NAME          AQ
$$ 		TYPE	R32
$$ 		CLASS	ACQU
$$ 		SUBRANGE 0.0 1000
$$ 		REL	"AQ=aqcalc(SW,SFO1,TD,DIGTYP)"
$$ 		INV_REL	"TD=tdcalc(SW,SFO1,1.0e6*AQ,DIGTYP)"
$$ 		UNIT	"sec"
$$ 		FORMAT	"%14.7f sec"
$$ 		TEXT	" "
$$ END
$$ NAME		RG
$$ 		TEXT	" "
$$ END
$$ T_NAME          DW
$$ 		TYPE	R32
$$ 		CLASS	ACQU
$$ 		SUBRANGE 0.0 1000000
$$ 		REL	"DW=1/(2*SW*SFO1)"
$$ 		INV_REL	"SW=1000000/(2*(0.005+DW)*SFO1)"
$$ 		UNIT	"usec"
$$ 		FORMAT	"%14.3lf usec"
$$ 		TEXT	" "
$$ END
$$ NAME		DE
$$ 		FORMAT	"%14.2f usec"
$$ 		TEXT	" "
$$ END
$$ NAME		TE
$$ 		FORMAT	"%14.1f K"
$$ 		TEXT	" "
$$ END
$$ T_NAME		D1
$$ 		TYPE	R32
$$ 		CLASS	ACQU
$$ 		SUBRANGE 0.0 1e38
$$ 		REL	"D1=D[1]"
$$ 		INV_REL	"D[1]=D1"
$$ 		UNIT	"sec"
$$ 		FORMAT	"%14.8f sec"
$$ 		TEXT	" "
$$ END
$$ NAME		TD0
$$ 		TEXT	" "
$$ END
$$ NAME		SFO1
$$ 		FORMAT	"%14.7f MHz"
$$ 		TEXT	" "
$$ END
$$ NAME		NUC1
$$ 		NONEDIT
$$ 		TEXT	" "
$$ END
$$ T_NAME		P0
$$ 		TYPE	R32
$$ 		CLASS	ACQU
$$ 		SUBRANGE 0.0 1.0e10
$$ 		REL	"P0=P[0]"
$$ 		INV_REL	"P[0]=P0"
$$ 		UNIT	"usec"
$$ 		FORMAT	"%14.2f usec"
$$ 		TEXT	" "
$$ END
$$ T_NAME		P1
$$ 		TYPE	R32
$$ 		CLASS	ACQU
$$ 		SUBRANGE 0.0 1.0e10
$$ 		REL	"P1=P[1]"
$$ 		INV_REL	"P[1]=P1"
$$ 		UNIT	"usec"
$$ 		FORMAT	"%14.2f usec"
$$ 		TEXT	" "
$$ END
$$ T_NAME		PLW1
$$ 		TYPE	R32
$$ 		CLASS	ACQU
$$ 		REL	"PLW1=PLW[1]"
$$ 		INV_REL	"PLW[1]=PLW1"
$$ 		UNIT	"W"
$$ 		FORMAT	"%14.8f W"
$$ 		TEXT	"power PLW1 "
$$ END
##$RELAX= 
##$BRUKER FILE EXP=fq1list
$$ O 600.133706
$$ -5000000
$$ -4968750
$$ -4937500
$$ -4906250
$$ -4875000
$$ -4843750
$$ -4812500
$$ -4781250
$$ -4750000
$$ -4718750
$$ -4687500
$$ -4656250
$$ -4625000
$$ -4593750
$$ -4562500
$$ -4531250
$$ -4500000
$$ -4468750
$$ -4437500
$$ -4406250
$$ -4375000
$$ -4343750
$$ -4312500
$$ -4281250
$$ -4250000
$$ -4218750
$$ -4187500
$$ -4156250
$$ -4125000
$$ -4093750
$$ -4062500
$$ -4031250
$$ -4000000
$$ -3968750
$$ -3937500
$$ -3906250
$$ -3875000
$$ -3843750
$$ -3812500
$$ -3781250
$$ -3750000
$$ -3718750
$$ -3687500
$$ -3656250
$$ -3625000
$$ -3593750
$$ -3562500
$$ -3531250
$$ -3500000
$$ -3468750
$$ -3437500
$$ -3406250
$$ -3375000
$$ -3343750
$$ -3312500
$$ -3281250
$$ -3250000
$$ -3218750
$$ -3187500
$$ -3156250
$$ -3125000
$$ -3093750
$$ -3062500
$$ -3031250
$$ -3000000
$$ -2968750
$$ -2937500
$$ -2906250
$$ -2875000
$$ -2843750
$$ -2812500
$$ -2781250
$$ -2750000
$$ -2718750
$$ -2687500
$$ -2656250
$$ -2625000
$$ -2593750
$$ -2562500
$$ -2531250
$$ -2500000
$$ -2468750
$$ -2437500
$$ -2406250
$$ -2375000
$$ -2343750
$$ -2312500
$$ -2281250
$$ -2250000
$$ -2218750
$$ -2187500
$$ -2156250
$$ -2125000
$$ -2093750
$$ -2062500
$$ -2031250
$$ -2000000
$$ -1968750
$$ -1937500
$$ -1906250
$$ -1875000
$$ -1843750
$$ -1812500
$$ -1781250
$$ -1750000
$$ -1718750
$$ -1687500
$$ -1656250
$$ -1625000
$$ -1593750
$$ -1562500
$$ -1531250
$$ -1500000
$$ -1468750
$$ -1437500
$$ -1406250
$$ -1375000
$$ -1343750
$$ -1312500
$$ -1281250
$$ -1250000
$$ -1218750
$$ -1187500
$$ -1156250
$$ -1125000
$$ -1093750
$$ -1062500
$$ -1031250
$$ -1000000
$$  -992157
$$  -984314
$$  -976471
$$  -968627
$$  -960784
$$  -952941
$$  -945098
$$  -937255
$$  -929412
$$  -921569
$$  -913725
$$  -905882
$$  -898039
$$  -890196
$$  -882353
$$  -874510
$$  -866667
$$  -858824
$$  -850980
$$  -843137
$$  -835294
$$  -827451
$$  -819608
$$  -811765
$$  -803922
$$  -796078
$$  -788235
$$  -780392
$$  -772549
$$  -764706
$$  -756863
$$  -749020
$$  -741176
$$  -733333
$$  -725490
$$  -717647
$$  -709804
$$  -701961
$$  -694118
$$  -686275
$$  -678431
$$  -670588
$$  -662745
$$  -654902
$$  -647059
$$  -639216
$$  -631373
$$  -623529
$$  -615686
$$  -607843
$$  -600000
$$  -592157
$$  -584314
$$  -576471
$$  -568627
$$  -560784
$$  -552941
$$  -545098
$$  -537255
$$  -529412
$$  -521569
$$  -513725
$$  -505882
$$  -498039
$$  -490196
$$  -482353
$$  -474510
$$  -466667
$$  -458824
$$  -450980
$$  -443137
$$  -435294
$$  -427451
$$  -419608
$$  -411765
$$  -403922
$$  -396078
$$  -388235
$$  -380392
$$  -372549
$$  -364706
$$  -356863
$$  -349020
$$  -341176
$$  -333333
$$  -325490
$$  -317647
$$  -309804
$$  -301961
$$  -294118
$$  -286275
$$  -278431
$$  -270588
$$  -262745
$$  -254902
$$  -247059
$$  -239216
$$  -231373
$$  -223529
$$  -215686
$$  -207843
$$  -200000
$$  -192157
$$  -184314
$$  -176471
$$  -168627
$$  -160784
$$  -152941
$$  -145098
$$  -137255
$$  -129412
$$  -121569
$$  -113725
$$  -105882
$$   -98039
$$   -90196
$$   -82353
$$   -74510
$$   -66667
$$   -58824
$$   -50980
$$   -43137
$$   -35294
$$   -27451
$$   -19608
$$   -11765
$$    -3922
$$     3922
$$    11765
$$    19608
$$    27451
$$    35294
$$    43137
$$    50980
$$    58824
$$    66667
$$    74510
$$    82353
$$    90196
$$    98039
$$   105882
$$   113725
$$   121569
$$   129412
$$   137255
$$   145098
$$   152941
$$   160784
$$   168627
$$   176471
$$   184314
$$   192157
$$   200000
$$   207843
$$   215686
$$   223529
$$   231373
$$   239216
$$   247059
$$   254902
$$   262745
$$   270588
$$   278431
$$   286275
$$   294118
$$   301961
$$   309804
$$   317647
$$   325490
$$   333333
$$   341176
$$   349020
$$   356863
$$   364706
$$   372549
$$   380392
$$   388235
$$   396078
$$   403922
$$   411765
$$   419608
$$   427451
$$   435294
$$   443137
$$   450980
$$   458824
$$   466667
$$   474510
$$   482353
$$   490196
$$   498039
$$   505882
$$   513725
$$   521569
$$   529412
$$   537255
$$   545098
$$   552941
$$   560784
$$   568627
$$   576471
$$   584314
$$   592157
$$   600000
$$   607843
$$   615686
$$   623529
$$   631373
$$   639216
$$   647059
$$   654902
$$   662745
$$   670588
$$   678431
$$   686275
$$   694118
$$   701961
$$   709804
$$   717647
$$   725490
$$   733333
$$   741176
$$   749020
$$   756863
$$   764706
$$   772549
$$   780392
$$   788235
$$   796078
$$   803922
$$   811765
$$   819608
$$   827451
$$   835294
$$   843137
$$   850980
$$   858824
$$   866667
$$   874510
$$   882353
$$   890196
$$   898039
$$   905882
$$   913725
$$   921569
$$   929412
$$   937255
$$   945098
$$   952941
$$   960784
$$   968627
$$   976471
$$   984314
$$   992157
$$  1000000
$$  1031250
$$  1062500
$$  1093750
$$  1125000
$$  1156250
$$  1187500
$$  1218750
$$  1250000
$$  1281250
$$  1312500
$$  1343750
$$  1375000
$$  1406250
$$  1437500
$$  1468750
$$  1500000
$$  1531250
$$  1562500
$$  1593750
$$  1625000
$$  1656250
$$  1687500
$$  1718750
$$  1750000
$$  1781250
$$  1812500
$$  1843750
$$  1875000
$$  1906250
$$  1937500
$$  1968750
$$  2000000
$$  2031250
$$  2062500
$$  2093750
$$  2125000
$$  2156250
$$  2187500
$$  2218750
$$  2250000
$$  2281250
$$  2312500
$$  2343750
$$  2375000
$$  2406250
$$  2437500
$$  2468750
$$  2500000
$$  2531250
$$  2562500
$$  2593750
$$  2625000
$$  2656250
$$  2687500
$$  2718750
$$  2750000
$$  2781250
$$  2812500
$$  2843750
$$  2875000
$$  2906250
$$  2937500
$$  2968750
$$  3000000
$$  3031250
$$  3062500
$$  3093750
$$  3125000
$$  3156250
$$  3187500
$$  3218750
$$  3250000
$$  3281250
$$  3312500
$$  3343750
$$  3375000
$$  3406250
$$  3437500
$$  3468750
$$  3500000
$$  3531250
$$  3562500
$$  3593750
$$  3625000
$$  3656250
$$  3687500
$$  3718750
$$  3750000
$$  3781250
$$  3812500
$$  3843750
$$  3875000
$$  3906250
$$  3937500
$$  3968750
$$  4000000
$$  4031250
$$  4062500
$$  4093750
$$  4125000
$$  4156250
$$  4187500
$$  4218750
$$  4250000
$$  4281250
$$  4312500
$$  4343750
$$  4375000
$$  4406250
$$  4437500
$$  4468750
$$  4500000
$$  4531250
$$  4562500
$$  4593750
$$  4625000
$$  4656250
$$  4687500
$$  4718750
$$  4750000
$$  4781250
$$  4812500
$$  4843750
$$  4875000
$$  4906250
$$  4937500
$$  4968750
$$  5000000
##$RELAX= 
##$BRUKER FILE EXP=scon2
$$ ##TITLE= Parameter file, TopSpin 3.6.4
$$ ##JCAMPDX= 5.0
$$ ##DATATYPE= Parameter Values
$$ ##NPOINTS= 1	$$ modification sequence number
$$ ##ORIGIN= Bruker BioSpin GmbH
$$ ##OWNER= AVIII600
$$ $$ 2024-10-28 12:47:53.652 +0100  AVIII600@AV3600
$$ $$ D:/Bruker/Topspin/data/AVIII600/nmr/20241028-AVIII600/170/scon2
$$ $$ process C:\Bruker\TopSpin3.6.4\prog\mod\go4.exe
$$ ##$BLKTR= (0..19)
$$ 3 3 3 3 3 3 3 3 3 3 3 3 3 3 3 3 3 3 3 3
$$ ##$DE1= 4.5
$$ ##$DEADC= 0.5
$$ ##$DEPA= 4.5
$$ ##$DERX= 1.5
$$ ##$FILCOR= 0.84
$$ ##$GRADCHAN= 0
$$ ##$GRADPRE= (0..1)
$$ 10 10
$$ ##$HD_BLKTR= (0..19)
$$ 1 1 1 1 1 1 1 1 1 1 1 1 1 1 1 1 1 1 1 1
$$ ##$HD_DE1= 5
$$ ##$HD_DEADC= 0
$$ ##$HD_DEPA= 2.5
$$ ##$HD_DERX= 0
$$ ##END=
##$RELAX= 
##$BRUKER FILE EXP=prosol_History
##$RELAX= 
##$BRUKER FILE EXP=pulseprogram
$$ # 1 "C:/Bruker/TopSpin3.6.4/exp/stan/nmr/lists/pp/zg30"
$$ ;zg30
$$ ;avance-version (18/04/13)
$$ ;1D sequence
$$ ;using 30 degree flip angle
$$ ;
$$ ;$CLASS=HighRes
$$ ;$DIM=1D
$$ ;$TYPE=
$$ ;$SUBTYPE=
$$ ;$COMMENT=
$$ ;$RECOMMEND=y
$$ 
$$ 
$$ # 1 "C:/Bruker/TopSpin3.6.4/exp/stan/nmr/lists/pp/Avance.incl" 1
$$ ;Avance3.incl
$$ ;   for AV III
$$ ;
$$ ;avance-version (13/06/17)
$$ ;
$$ ;$CLASS=HighRes Incl
$$ ;$COMMENT=
$$ # 169 "C:/Bruker/TopSpin3.6.4/exp/stan/nmr/lists/pp/Avance.incl"
$$ ;$Id: Avance3.incl,v 1.10.2.2 2013/08/30 09:43:33 ber Exp $
$$ # 14 "C:/Bruker/TopSpin3.6.4/exp/stan/nmr/lists/pp/zg30" 2
$$ 
$$ 
$$ # 17 "C:/Bruker/TopSpin3.6.4/exp/stan/nmr/lists/pp/zg30"
$$ "p0=p1/3"
$$ 
$$ 
$$ "acqt0=-tan((p0/p1)*(PI/4))*p1*2/PI"
$$ # 1 "mc_line 23 file C:/Bruker/TopSpin3.6.4/exp/stan/nmr/lists/pp/zg30 exp. def. part of mc cmd. before ze"
$$ ; dimension 1D; AQ_mode 
$$ define delay MCWRK
$$ define delay MCREST
$$ "MCREST = 30m - 30m"
$$ "MCWRK = 0.333333*30m"
$$ 
$$     dccorr
$$ # 23 "C:/Bruker/TopSpin3.6.4/exp/stan/nmr/lists/pp/zg30"
$$ # 23 "C:/Bruker/TopSpin3.6.4/exp/stan/nmr/lists/pp/zg30"
$$ 1 ze
$$ # 1 "mc_line 23 file C:/Bruker/TopSpin3.6.4/exp/stan/nmr/lists/pp/zg30 exp. def. of mc cmd. after ze"
$$ # 24 "C:/Bruker/TopSpin3.6.4/exp/stan/nmr/lists/pp/zg30"
$$ # 1 "mc_line 24 file C:/Bruker/TopSpin3.6.4/exp/stan/nmr/lists/pp/zg30 exp. start label for mc cmd."
$$ 2 MCWRK  * 2
$$ LBLF0, MCWRK
$$   MCREST
$$ # 25 "C:/Bruker/TopSpin3.6.4/exp/stan/nmr/lists/pp/zg30"
$$   d1
$$   p0 ph1
$$   go=2 ph31
$$ # 1 "mc_line 28 file C:/Bruker/TopSpin3.6.4/exp/stan/nmr/lists/pp/zg30 exp. mc cmd. in line"
$$   MCWRK wr #0
$$   MCWRK zd
$$   lo to LBLF0 times td0
$$ 
$$ # 29 "C:/Bruker/TopSpin3.6.4/exp/stan/nmr/lists/pp/zg30"
$$ exit
$$ 
$$ 
$$ ph1=0 2 2 0 1 3 3 1
$$ ph31=0 2 2 0 1 3 3 1
$$ # 36 "C:/Bruker/TopSpin3.6.4/exp/stan/nmr/lists/pp/zg30"
$$ ;pl1 : f1 channel - power level for pulse (default)
$$ ;p1 : f1 channel -  90 degree high power pulse
$$ ;d1 : relaxation delay; 1-5 * T1
$$ ;ns: 1 * n, total number of scans: NS * TD0
$$ 
$$ 
$$ # 43 "C:/Bruker/TopSpin3.6.4/exp/stan/nmr/lists/pp/zg30"
$$ ;$Id: zg30,v 1.12.2.2 2018/04/13 14:28:42 ber Exp $
##$RELAX= 
##$BRUKER FILE EXP=shimvalues
$$ # Mon Oct 28 12:49:04 2024
$$ #$$PROBEIDENTIFIER=Z114607_0100
$$ #$$PROBENAME=PA BBO 600S3 BBF-H-D-05 Z SP
$$ #$$SHIMID=292722
$$ #
$$ # Active Shim Gradients
$$ #
$$ Z           		-5620           
$$ Z2          		5571            
$$ Z3          		185             
$$ Z4          		568             
$$ Z5          		591             
$$ Z6          		-1083           
$$ Z7          		4252            
$$ Z8          		9915            
$$ X           		11147           
$$ XZ          		-3448           
$$ XZ2         		5443            
$$ XZ3         		-4597           
$$ XZ4         		-1052           
$$ XZ5         		-8062           
$$ Y           		10680           
$$ YZ          		4663            
$$ YZ2         		17837           
$$ YZ3         		3756            
$$ YZ4         		2561            
$$ YZ5         		-852            
$$ XY          		-13939          
$$ XYZ         		7981            
$$ XYZ2        		3260            
$$ XYZ3        		111             
$$ XYZ4        		1953            
$$ XYZ5        		140             
$$ (X2-Y2)     		8051            
$$ (X2-Y2)Z    		12052           
$$ (X2-Y2)Z2   		-1446           
$$ (X2-Y2)Z3   		-895            
$$ (X2-Y2)Z4   		1223            
$$ (X2-Y2)Z5   		207             
$$ X3          		6610            
$$ X3Z         		-8815           
$$ Y3          		332             
$$ Y3Z         		-937            
$$ #
$$ # Lock Parameter
$$ #
$$ FIELD		3395.436
$$ LOCKPHASE		141.319 
$$ LOCKPOWER		-30.000 
$$ LOCKGAIN		122.067 
$$ LOCKDC		-75.500 
$$ LOCKSHIFT		7.240   
$$ LOOPGAIN		-12.000 
$$ LOOPTIME		0.400   
$$ LOOPFILTER		100.000 
$$ #
$$ IEEE64_VERSION_CODE 1
$$ #
$$ # Shim currents 
$$ #
$$ SHIM_SETTING [1 ]  -2170.84253109  
$$ SHIM_SETTING [2 ]  1166.38670430   
$$ SHIM_SETTING [3 ]  -2119.37069518  
$$ SHIM_SETTING [4 ]  10508.24721898  
$$ SHIM_SETTING [5 ]  -5011.28319560  
$$ SHIM_SETTING [6 ]  -4187.58323686  
$$ SHIM_SETTING [7 ]  16030.30148412  
$$ SHIM_SETTING [8 ]  6230.37409809   
$$ SHIM_SETTING [9 ]  3224.01556728   
$$ SHIM_SETTING [10]  296.12849462    
$$ SHIM_SETTING [11]  0.00000000      
$$ SHIM_SETTING [12]  1268.85300000   
$$ SHIM_SETTING [13]  -605.33700000   
$$ SHIM_SETTING [14]  7481.23300281   
$$ SHIM_SETTING [15]  4467.63736920   
$$ SHIM_SETTING [16]  25272.38441371  
$$ SHIM_SETTING [17]  9828.53704641   
$$ SHIM_SETTING [18]  7540.05997548   
$$ SHIM_SETTING [19]  -9110.04490776  
$$ SHIM_SETTING [20]  14732.00464832  
$$ SHIM_SETTING [21]  15781.55300917  
$$ SHIM_SETTING [22]  -7122.56998878  
$$ SHIM_SETTING [23]  17017.59098912  
$$ SHIM_SETTING [24]  -1243.56599051  
$$ SHIM_SETTING [25]  6411.00699947   
$$ SHIM_SETTING [26]  2400.39501365   
$$ SHIM_SETTING [27]  -1069.33000040  
$$ SHIM_SETTING [28]  36803.16741168  
$$ SHIM_SETTING [29]  -2861.25301971  
$$ SHIM_SETTING [30]  -6929.64800980  
$$ SHIM_SETTING [31]  -5112.84822717  
$$ SHIM_SETTING [32]  21276.28838912  
$$ SHIM_SETTING [33]  3253.10298063   
$$ SHIM_SETTING [34]  -12955.23801930 
$$ SHIM_SETTING [35]  -12676.70000515 
$$ SHIM_SETTING [36]  -23881.72099154 
$$ SHIM_SETTING [37]  -1023.57184180  
$$ SHIM_SETTING [38]  4233.15957537   
$$ SHIM_SETTING [39]  -1686.94774335  
$$ SHIM_SETTING [40]  0.00000000      
##$RELAX= 
##$BRUKER FILE EXP=uxnmr.par
$$ ##TITLE= Parameter file, TopSpin 3.6.4
$$ ##JCAMPDX= 5.0
$$ ##DATATYPE= Parameter Values
$$ ##NPOINTS= 457	$$ modification sequence number
$$ ##ORIGIN= Bruker BioSpin GmbH
$$ ##OWNER= nmrsu
$$ $$ 2024-10-24 10:17:28.560 +0200  AVIII600@AV3600
$$ $$ C:/Bruker/TopSpin3.6.4/conf/instr/spect/uxnmr.par
$$ $$ process C:\Bruker\TopSpin3.6.4\prog\mod\cfserverav3.exe
$$ ##$ACB= 0
$$ ##$ACBTAT= (0..23)
$$ 0 72 88 50 50 0 0 0 0 0 0 0 0 0 0 0 0 0 0 0 0 0 0 0
$$ ##$ACBTBA= (0..23)
$$ 0 0 0 0 0 0 0 0 0 0 0 0 0 0 0 0 0 0 0 0 0 0 0 0
$$ ##$ACBTBLK= (0..23)
$$ 0 34 33 39 1 0 0 0 0 0 0 0 0 0 0 0 0 0 0 0 0 0 0 0
$$ ##$ACBTCTL= (0..23)
$$ 0 6 6 6 6 0 0 0 0 0 0 0 0 0 0 0 0 0 0 0 0 0 0 0
$$ ##$ACBTDI= (0..23)
$$ 0 -1779670018 -1779670018 -1779670018 -1779670252 0 0 0 0 0 0 0 0 0 0 0
$$ 0 0 0 0 0 0 0 0
$$ ##$ACBTDM= (0..23)
$$ 0 25 10 10 10 0 0 0 0 0 0 0 0 0 0 0 0 0 0 0 0 0 0 0
$$ ##$ACBTFHI= (0..23)
$$ 0 600 365 92 93 0 0 0 0 0 0 0 0 0 0 0 0 0 0 0 0 0 0 0
$$ ##$ACBTFL= (0..23)
$$ 0 248 248 88 8 0 0 0 0 0 0 0 0 0 0 0 0 0 0 0 0 0 0 0
$$ ##$ACBTFLO= (0..23)
$$ 0 180 6 30 91 0 0 0 0 0 0 0 0 0 0 0 0 0 0 0 0 0 0 0
$$ ##$ACBTINP= (0..23)
$$ 0 2 1 7 0 0 0 0 0 0 0 0 0 0 0 0 0 0 0 0 0 0 0 0
$$ ##$ACBTOUT= (0..23)
$$ 0 1 2 3 1 0 0 0 0 0 0 0 0 0 0 0 0 0 0 0 0 0 0 0
$$ ##$ACBTPO= (0..23)
$$ 0 100000 300000 150000 5000 0 0 0 0 0 0 0 0 0 0 0 0 0 0 0 0 0 0 0
$$ ##$ACBTPW= (0..23)
$$ 0 100 100 5 1000 0 0 0 0 0 0 0 0 0 0 0 0 0 0 0 0 0 0 0
$$ ##$ACBTSB= (0..23)
$$ 0 103 99 16 0 0 0 0 0 0 0 0 0 0 0 0 0 0 0 0 0 0 0 0
$$ ##$ACBTSDT= (0..23)
$$ 0 2 2 2 2 0 0 0 0 0 0 0 0 0 0 0 0 0 0 0 0 0 0 0
$$ ##$ACBTY= <no>
$$ ##$AMPDFLT= no
$$ ##$AQSBDCH= (0..95)
$$ 0 0 0 0 0 0 0 0 255 255 255 255 255 255 255 255 255 255 255 255 255 255
$$ 255 255 255 255 255 255 255 255 255 255 255 255 255 255 255 255 255 255
$$ 255 255 255 255 255 255 255 255 255 255 255 255 255 255 255 255 255 255
$$ 255 255 255 255 255 255 255 255 255 255 255 255 255 255 255 255 255 255
$$ 255 255 255 255 255 255 255 255 255 255 255 255 255 255 255 255 255 255
$$ 255 255
$$ ##$AQSBDHW= (0..95)
$$ 5 1 0 0 0 0 0 0 255 255 255 255 255 255 255 255 255 255 255 255 255 255
$$ 255 255 255 255 255 255 255 255 255 255 255 255 255 255 255 255 255 255
$$ 255 255 255 255 255 255 255 255 255 255 255 255 255 255 255 255 255 255
$$ 255 255 255 255 255 255 255 255 255 255 255 255 255 255 255 255 255 255
$$ 255 255 255 255 255 255 255 255 255 255 255 255 255 255 255 255 255 255
$$ 255 255
$$ ##$AQSBDID= (0..95)
$$ 82 88 83 83 86 86 66 66 255 255 255 255 255 255 255 255 255 255 255 255
$$ 255 255 255 255 255 255 255 255 255 255 255 255 255 255 255 255 255 255
$$ 255 255 255 255 255 255 255 255 255 255 255 255 255 255 255 255 255 255
$$ 255 255 255 255 255 255 255 255 255 255 255 255 255 255 255 255 255 255
$$ 255 255 255 255 255 255 255 255 255 255 255 255 255 255 255 255 255 255
$$ 255 255 255 255
$$ ##$AQSBDNO= (0..95)
$$ 1 1 1 2 1 2 1 1 255 255 255 255 255 255 255 255 255 255 255 255 255 255
$$ 255 255 255 255 255 255 255 255 255 255 255 255 255 255 255 255 255 255
$$ 255 255 255 255 255 255 255 255 255 255 255 255 255 255 255 255 255 255
$$ 255 255 255 255 255 255 255 255 255 255 255 255 255 255 255 255 255 255
$$ 255 255 255 255 255 255 255 255 255 255 255 255 255 255 255 255 255 255
$$ 255 255
$$ ##$AQSBDSL= (0..95)
$$ 2 3 4 4 13 14 255 1 255 255 255 255 255 255 255 255 255 255 255 255 255
$$ 255 255 255 255 255 255 255 255 255 255 255 255 255 255 255 255 255 255
$$ 255 255 255 255 255 255 255 255 255 255 255 255 255 255 255 255 255 255
$$ 255 255 255 255 255 255 255 255 255 255 255 255 255 255 255 255 255 255
$$ 255 255 255 255 255 255 255 255 255 255 255 255 255 255 255 255 255 255
$$ 255 255 255
$$ ##$AQSBDTY= (0..95)
$$ 67 214 50 50 147 145 216 7 255 255 255 255 255 255 255 255 255 255 255
$$ 255 255 255 255 255 255 255 255 255 255 255 255 255 255 255 255 255 255
$$ 255 255 255 255 255 255 255 255 255 255 255 255 255 255 255 255 255 255
$$ 255 255 255 255 255 255 255 255 255 255 255 255 255 255 255 255 255 255
$$ 255 255 255 255 255 255 255 255 255 255 255 255 255 255 255 255 255 255
$$ 255 255 255 255 255
$$ ##$AQSBUAD= (0..95)
$$ 16 52 36 37 160 161 32 32 255 255 255 255 255 255 255 255 255 255 255 255
$$ 255 255 255 255 255 255 255 255 255 255 255 255 255 255 255 255 255 255
$$ 255 255 255 255 255 255 255 255 255 255 255 255 255 255 255 255 255 255
$$ 255 255 255 255 255 255 255 255 255 255 255 255 255 255 255 255 255 255
$$ 255 255 255 255 255 255 255 255 255 255 255 255 255 255 255 255 255 255
$$ 255 255 255 255
$$ ##$AQSECL= (0..95)
$$ 0 2 2 2 0 1 1 255 255 255 255 255 255 255 255 255 255 255 255 255 255 255
$$ 255 255 255 255 255 255 255 255 255 255 255 255 255 255 255 255 255 255
$$ 255 255 255 255 255 255 255 255 255 255 255 255 255 255 255 255 255 255
$$ 255 255 255 255 255 255 255 255 255 255 255 255 255 255 255 255 255 255
$$ 255 255 255 255 255 255 255 255 255 255 255 255 255 255 255 255 255 255
$$ 255 255
$$ ##$AQSECLS= (0..95)
$$ 1 0 0 0 0 1 1 255 255 255 255 255 255 255 255 255 255 255 255 255 255 255
$$ 255 255 255 255 255 255 255 255 255 255 255 255 255 255 255 255 255 255
$$ 255 255 255 255 255 255 255 255 255 255 255 255 255 255 255 255 255 255
$$ 255 255 255 255 255 255 255 255 255 255 255 255 255 255 255 255 255 255
$$ 255 255 255 255 255 255 255 255 255 255 255 255 255 255 255 255 255 255
$$ 255 255
$$ ##$AQSETH1= <no>
$$ ##$AQSETH2= <no>
$$ ##$AQSSPLT= no
$$ ##$ATT19F= (0..1)
$$ 0 0
$$ ##$ATT1H= (0..1)
$$ 0 0
$$ ##$ATT3H= (0..1)
$$ 0 0
$$ ##$ATTX= (0..1)
$$ 0 0
$$ ##$ATTY= (0..1)
$$ 0 0
$$ ##$ATTZ= (0..1)
$$ 0 0
$$ ##$BACSAIR= yes
$$ ##$BACSCAP= 16
$$ ##$BACSDEL= 10
$$ ##$BACSFCM= no
$$ ##$BACSOPT= <>
$$ ##$BACSTY= <tty04>
$$ ##$BARPTY= <no>
$$ ##$BFREQ= 600.13
$$ ##$BGAETH= (0..9)
$$ <no> <no> <no> <no> <no> <no> <no> <no> <no> <no>
$$ ##$BIRDS= yes
$$ ##$BMPC= 0
$$ ##$BMPCTY= <no>
$$ ##$BPSUTY= <no>
$$ ##$BSMS= 2
$$ ##$BSMS19FLock= no
$$ ##$BSMSETH= <149.236.99.20>
$$ ##$BSMSTY= <no>
$$ ##$BgaChFac2= (0..7)
$$ 0 0 0 0 0 0 0 0
$$ ##$BgaChMap= (0..7)
$$ 0 0 0 0 0 0 0 0
$$ ##$BgaChMaxv= (0..7)
$$ 0 0 0 0 0 0 0 0
$$ ##$BgaChRouting= (0..63)
$$ 0 0 0 0 0 0 0 0 0 0 0 0 0 0 0 0 0 0 0 0 0 0 0 0 0 0 0 0 0 0 0 0 0 0 0 0
$$ 0 0 0 0 0 0 0 0 0 0 0 0 0 0 0 0 0 0 0 0 0 0 0 0 0 0 0 0
$$ ##$BgaChShimMap= (0..7)
$$ 0 0 0 0 0 0 0 0
$$ ##$BgaChShimMaxv= (0..7)
$$ 0 0 0 0 0 0 0 0
$$ ##$Bla01Eth= <149.236.99.254>
$$ ##$Bla01Nam= <BLAXH2H300/100/150 E 200-600MHZ>
$$ ##$Bla01PN= <W1345096>
$$ ##$Bla01SN= <0917>
$$ ##$Bla02Eth= <149.236.99.20>
$$ ##$Bla02Nam= <BSMS/2 LOCK TRANSCEIVER 600>
$$ ##$Bla02PN= <Z109890>
$$ ##$Bla02SN= <00308>
$$ ##$Bla03Eth= <no>
$$ ##$Bla03Nam= <>
$$ ##$Bla03PN= <>
$$ ##$Bla03SN= <>
$$ ##$Bla04Eth= <no>
$$ ##$Bla04Nam= <>
$$ ##$Bla04PN= <>
$$ ##$Bla04SN= <>
$$ ##$Bla05Eth= <no>
$$ ##$Bla05Nam= <>
$$ ##$Bla05PN= <>
$$ ##$Bla05SN= <>
$$ ##$Bla06Eth= <no>
$$ ##$Bla06Nam= <>
$$ ##$Bla06PN= <>
$$ ##$Bla06SN= <>
$$ ##$Bla07Eth= <no>
$$ ##$Bla07Nam= <>
$$ ##$Bla07PN= <>
$$ ##$Bla07SN= <>
$$ ##$Bla08Eth= <no>
$$ ##$Bla08Nam= <>
$$ ##$Bla08PN= <>
$$ ##$Bla08SN= <>
$$ ##$BlaEth= (0..9)
$$ <149.236.99.254> <149.236.99.20> <no> <no> <no> <no> <no> <no> <> <>
$$ ##$BlaNam= (0..9)
$$ <BLAXH2H300/100/150 E 200-600MHZ BSMS/2 LOCK TRANSCEIVER 600> <BSMS/2 LOCK TRANSCEIVER 600>
$$ <> <> <> <> <> <> <> <>
$$ ##$BlaPN= (0..9)
$$ <W1345096> <Z109890> <> <> <> <> <> <> <> <>
$$ ##$BlaSN= (0..9)
$$ <0917> <00308> <> <> <> <> <> <> <> <>
$$ ##$BsmsAuxEth= <no>
$$ ##$CFASMOD= (0..7)
$$ 1 1 1 1 1 1 1 1
$$ ##$CFASMUL= (0..7)
$$ 1 1 1 1 1 1 1 1
$$ ##$CNFTXDR= (0..7)
$$ 6 6 0 0 0 0 0 0
$$ ##$COMDIG2= 0
$$ ##$CPDBTY= <no>
$$ ##$CRCOTY= <no>
$$ ##$CSW1= (0..31)
$$ 2 2 0 7 0 0 0 0 0 0 0 0 0 0 0 0 0 0 0 0 0 0 0 0 0 0 0 0 0 0 0 0
$$ ##$CSW2= (0..31)
$$ 1 1 0 0 0 0 0 0 0 0 0 0 0 0 0 0 0 0 0 0 0 0 0 0 0 0 0 0 0 0 0 0
$$ ##$CSWNUM= (0..7)
$$ 4 1 0 0 0 0 0 0
$$ ##$ConsolePnSn= <>
$$ ##$CryoCoolUnitEth= <no>
$$ ##$CryoProAccPnSn= <>
$$ ##$Ctb1Eth= <no>
$$ ##$CubeEth= (0..7)
$$ <no> <no> <no> <no> <no> <no> <no> <no>
$$ ##$CustRegisterNo= <>
$$ ##$DATSTAT= no
$$ ##$DIGI140= (0..7)
$$ 0 0 0 0 0 0 0 0
$$ ##$DIGIB12= (0..7)
$$ 0 0 0 0 0 0 0 0
$$ ##$DIGIB16= (0..7)
$$ 0 0 0 0 0 0 0 0
$$ ##$DIGIFA= (0..7)
$$ 0 0 0 0 0 0 0 0
$$ ##$DIGIFOURIER= 0
$$ ##$DIGIHA= (0..7)
$$ 0 0 0 0 0 0 0 0
$$ ##$DIGIHAF= (0..7)
$$ 0 0 0 0 0 0 0 0
$$ ##$DIGIHRD= (0..7)
$$ 0 0 0 0 0 0 0 0
$$ ##$DIGIIA= (0..7)
$$ 0 0 0 0 0 0 0 0
$$ ##$DIGIO16= (0..7)
$$ 0 0 0 0 0 0 0 0
$$ ##$DIGISA= (0..7)
$$ 0 0 0 0 0 0 0 0
$$ ##$DIGISAF= (0..7)
$$ 0 0 0 0 0 0 0 0
$$ ##$DIGISL= (0..7)
$$ 0 0 0 0 0 0 0 0
$$ ##$DIGITYI= (0..7)
$$ 0 0 0 0 0 0 0 0
$$ ##$DIGITYP= (0..7)
$$ 0 0 0 0 0 0 0 0
$$ ##$DIGITZ= 0
$$ ##$DPPFAC= 1
$$ ##$DRMSETH= <no>
$$ ##$DRU= yes
$$ ##$DRUETH= (0..33)
$$ <no> <149.236.99.89> <no> <no> <no> <no> <no> <no> <no> <no> <no> <no>
$$ <no> <no> <no> <no> <no> <no> <no> <no> <no> <no> <no> <no> <no> <no> <no>
$$ <no> <no> <no> <no> <no> <no> <no>
$$ ##$Description= <Avance III 600 HD>
$$ ##$DppType= 0
$$ ##$FCUMEM= (0..7)
$$ 16777208 16777208 0 0 0 0 0 0
$$ ##$FCUPAL= (0..7)
$$ 0 0 0 0 0 0 0 0
$$ ##$FGSVTY= <no>
$$ ##$FQMIX= 0
$$ ##$FUNCMOD= <>
$$ ##$FourPeriBdEth= <no>
$$ ##$FourShimBdEth= <no>
$$ ##$FourierPicsCon= no
$$ ##$GCUTYPE= 10
$$ ##$GCUTYPE2= 0
$$ ##$GPREDEL= 0
$$ ##$GPSCUTY= <no>
$$ ##$GRADRES= 5
$$ ##$GTUTY= <no>
$$ ##$GcConn= (0..1)
$$ 1 0
$$ ##$GradAmpGain= (0..7)
$$ 0 0 0 0 0 0 0 0
$$ ##$GradAmpMaxCurX= (0..7)
$$ 0 0 0 0 0 0 0 0
$$ ##$GradAmpMaxCurY= (0..7)
$$ 0 0 0 0 0 0 0 0
$$ ##$GradAmpMaxCurZ= (0..7)
$$ 9.99999904632568 0 0 0 0 0 0 0
$$ ##$GradAmpName= (0..7)
$$ <GAB in BSMS> <> <> <> <> <> <> <>
$$ ##$GradAmpPN= (0..7)
$$ <> <> <> <> <> <> <> <>
$$ ##$GradAmpSN= (0..7)
$$ <> <> <> <> <> <> <> <>
$$ ##$GradAmpType= (0..7)
$$ 2 0 0 0 0 0 0 0
$$ ##$GradPowClkCtrl= 0
$$ ##$GradPowClkTime= 0
$$ ##$GradPowImax= 0
$$ ##$GradPowType= 0
$$ ##$GradPowVmax= 0
$$ ##$HDIETH= (0..5)
$$ <no> <no> <no> <no> <no> <no>
$$ ##$HFAC= 3
$$ ##$HPCU= 0
$$ ##$HPCUTY= <no>
$$ ##$HPTXLP= (0..3)
$$ -1 -1 -1 -1
$$ ##$HPTXPI= (0..3)
$$ 0 0 0 0
$$ ##$HPTXPO= (0..3)
$$ 0 0 0 0
$$ ##$HPTXTY= (0..3)
$$ 0 0 0 0
$$ ##$HpprCoverType= 2
$$ ##$IF451= 0
$$ ##$IFREQ= 1
$$ ##$INJPTY= <no>
$$ ##$INTFPR= 0
$$ ##$IPSOETH= <149.236.99.253>
$$ ##$IPSOTYPE= 1
$$ ##$LDUETH= <no>
$$ ##$LOCKCONF= <DLMT>
$$ ##$LOCKTY= <no>
$$ ##$LOCSWID= 0
$$ ##$LOCSWIF= 0
$$ ##$LVDSSPLITETH= (0..5)
$$ <no> <no> <no> <no> <no> <no>
$$ ##$Location= <Uni Hamburg>
$$ ##$LtMasEth= <no>
$$ ##$LtMasType= 0
$$ ##$M2FAC= 0
$$ ##$MAS= 0
$$ ##$MASETIME= 10
$$ ##$MASITIME= 10
$$ ##$MASTY= <no>
$$ ##$MAS_CT= 5
$$ ##$MAS_SG= 0
$$ ##$MAS_TO= 0
$$ ##$MEMPRM= 0
$$ ##$MHFAC= 0
$$ ##$MXFAC= 0
$$ ##$MagnCoilPnSn= <>
$$ ##$MagnDewarPnSn= <>
$$ ##$MasEth= <no>
$$ ##$NAMPD= (0..17)
$$ <> <HPLNA 19F1H> <2H> <XBB19F 2HS> <> <> <> <> <> <> <> <> <> <> <> <>
$$ <> <>
$$ ##$NFCU= 2
$$ ##$NFRED= 0
$$ ##$NMRCH= 2
$$ ##$NMRMEM= 16384
$$ ##$NPSGU= 0
$$ ##$NRCU= 1
$$ ##$NROUT= 0
$$ ##$NSGU= 2
$$ ##$OrderNo= <10073814>
$$ ##$PAMPF1= (0..15)
$$ 75 56 96 64 0 0 0 0 0 0 0 0 0 0 0 0
$$ ##$PAMPF2= (0..15)
$$ 0 0 0 0 0 0 0 0 0 0 0 0 0 0 0 0
$$ ##$PAMPF3= (0..15)
$$ 0 0 0 0 0 0 0 0 0 0 0 0 0 0 0 0
$$ ##$PAMPF4= (0..15)
$$ 0 0 0 0 0 0 0 0 0 0 0 0 0 0 0 0
$$ ##$PAMPF5= (0..15)
$$ 0 0 0 0 0 0 0 0 0 0 0 0 0 0 0 0
$$ ##$PAMPF6= (0..15)
$$ 0 0 0 0 0 0 0 0 0 0 0 0 0 0 0 0
$$ ##$PAMPF7= (0..15)
$$ 0 0 0 0 0 0 0 0 0 0 0 0 0 0 0 0
$$ ##$PAMPF8= (0..15)
$$ 0 0 0 0 0 0 0 0 0 0 0 0 0 0 0 0
$$ ##$PH4= 0
$$ ##$PHF4TY= <no>
$$ ##$POWCHK= yes
$$ ##$PRAMD1= (0..7)
$$ 6 0 0 1610612736 0 0 0 0
$$ ##$PRAMD10= (0..7)
$$ 0 0 0 0 0 0 0 0
$$ ##$PRAMD11= (0..7)
$$ 0 0 0 0 0 0 0 0
$$ ##$PRAMD12= (0..7)
$$ 0 0 0 0 0 0 0 0
$$ ##$PRAMD13= (0..7)
$$ 0 0 0 0 0 0 0 0
$$ ##$PRAMD14= (0..7)
$$ 0 0 0 0 0 0 0 0
$$ ##$PRAMD15= (0..7)
$$ 0 0 0 0 0 0 0 0
$$ ##$PRAMD16= (0..7)
$$ 0 0 0 0 0 0 0 0
$$ ##$PRAMD17= (0..7)
$$ 0 0 0 0 0 0 0 0
$$ ##$PRAMD18= (0..7)
$$ 0 0 0 0 0 0 0 0
$$ ##$PRAMD19= (0..7)
$$ 0 0 0 0 0 0 0 0
$$ ##$PRAMD2= (0..7)
$$ 0 1048576 0 536870912 0 1048576 0 536870912
$$ ##$PRAMD20= (0..7)
$$ 0 0 0 0 0 0 0 0
$$ ##$PRAMD21= (0..7)
$$ 0 0 0 0 0 0 0 0
$$ ##$PRAMD3= (0..7)
$$ 2147483644 2131230719 2147483647 603979775 0 0 0 0
$$ ##$PRAMD4= (0..7)
$$ 0 0 0 0 0 0 0 0
$$ ##$PRAMD5= (0..7)
$$ 0 0 0 0 0 0 0 0
$$ ##$PRAMD6= (0..7)
$$ 0 0 0 0 0 0 0 0
$$ ##$PRAMD7= (0..7)
$$ 0 0 0 0 0 0 0 0
$$ ##$PRAMD8= (0..7)
$$ 0 0 0 0 0 0 0 0
$$ ##$PRAMD9= (0..7)
$$ 0 0 0 0 0 0 0 0
$$ ##$PRAMLED= (0..1)
$$ 0 0
$$ ##$PRAMP= (0..9)
$$ <00000000> <tty10> <no> <no> <no> <no> <no> <no> <no> <00000000>
$$ ##$PRAMPTP= 1
$$ ##$PREEMPTYPE= 0
$$ ##$PREPTY= <no>
$$ ##$PREREC= (0..15)
$$ 0 1 1 1 0 0 0 0 0 0 0 0 0 0 0 0
$$ ##$PRESHLD= 0
$$ ##$PTS160= -1
$$ ##$PTSA2X= (0..7)
$$ 0 0 0 0 0 0 0 0
$$ ##$PTSF2X= (0..7)
$$ 0 0 0 0 0 0 0 0
$$ ##$PTSFMX= (0..19)
$$ 649.9 649.9 0 0 0 0 0 0 0 0 0 0 0 0 0 0 0 0 0 0
$$ ##$PULCHK= no
$$ ##$PerMagATempSens= no
$$ ##$PerMagEth= <no>
$$ ##$PerMagFluxSens= no
$$ ##$PerMagMTempSens= no
$$ ##$PramDutyCycPerc= (0..15)
$$ 4 2 2 0 0 0 0 0 0 0 0 0 0 0 0 0
$$ ##$PramPeakPowerW= (0..15)
$$ 4000 500 500 0 0 0 0 0 0 0 0 0 0 0 0 0
$$ ##$PramPowerDetect= (0..15)
$$ 1 0 0 0 0 0 0 0 0 0 0 0 0 0 0 0
$$ ##$PramPowerSwitch= (0..15)
$$ 0 0 0 0 0 0 0 0 0 0 0 0 0 0 0 0
$$ ##$PramPulWidthMs= (0..15)
$$ 10 0.1 0.1 0 0 0 0 0 0 0 0 0 0 0 0 0
$$ ##$PreampMod01PN= <Z103205>
$$ ##$PreampMod01SN= <00143>
$$ ##$PreampMod02PN= <Z003473>
$$ ##$PreampMod02SN= <00954>
$$ ##$PreampMod03PN= <Z003506>
$$ ##$PreampMod03SN= <01129>
$$ ##$PreampMod04PN= <>
$$ ##$PreampMod04SN= <>
$$ ##$PreampMod05PN= <>
$$ ##$PreampMod05SN= <>
$$ ##$PreampMod06PN= <>
$$ ##$PreampMod06SN= <>
$$ ##$PreampMod07PN= <>
$$ ##$PreampMod07SN= <>
$$ ##$PreampMod08PN= <>
$$ ##$PreampMod08SN= <>
$$ ##$PreampMod09PN= <>
$$ ##$PreampMod09SN= <>
$$ ##$PreampMod10PN= <>
$$ ##$PreampMod10SN= <>
$$ ##$PreampMod11PN= <>
$$ ##$PreampMod11SN= <>
$$ ##$PreampMod12PN= <>
$$ ##$PreampMod12SN= <>
$$ ##$PreampMod13PN= <>
$$ ##$PreampMod13SN= <>
$$ ##$PreampMod14PN= <>
$$ ##$PreampMod14SN= <>
$$ ##$PreampMod15PN= <>
$$ ##$PreampMod15SN= <>
$$ ##$PreampMod16PN= <>
$$ ##$PreampMod16SN= <>
$$ ##$PreampModBisDat= (0..15)
$$ 20120822 20120803 20120818 0 0 0 0 0 0 0 0 0 0 0 0 0
$$ ##$PreampModPN= (0..17)
$$ <Z103205> <Z003473> <Z003506> <> <> <> <> <> <> <> <> <> <> <> <> <> <>
$$ <>
$$ ##$PreampModSN= (0..17)
$$ <00143> <00954> <01129> <> <> <> <> <> <> <> <> <> <> <> <> <> <> <>
$$ ##$ProdigyEth= <no>
$$ ##$RCUCDS= (0..7)
$$ 0 0 0 0 0 0 0 0
$$ ##$RCUCFS= (0..7)
$$ 0 0 0 0 0 0 0 0
$$ ##$RCUCSS= (0..7)
$$ 0 0 0 0 0 0 0 0
$$ ##$RCUI2C1= (0..7)
$$ 0 0 0 0 0 0 0 0
$$ ##$RCUI2C2= (0..7)
$$ 0 0 0 0 0 0 0 0
$$ ##$RCUI2C3= (0..7)
$$ 0 0 0 0 0 0 0 0
$$ ##$RCUI2C4= (0..7)
$$ 0 0 0 0 0 0 0 0
$$ ##$RCUI2C5= (0..7)
$$ 0 0 0 0 0 0 0 0
$$ ##$RCUI2C6= (0..7)
$$ 0 0 0 0 0 0 0 0
$$ ##$RCUI2C7= (0..7)
$$ 0 0 0 0 0 0 0 0
$$ ##$RCUI2C8= (0..7)
$$ 0 0 0 0 0 0 0 0
$$ ##$RDCU= 0
$$ ##$RFSINPUT= (0..1)
$$ 0 0
$$ ##$RFSVTY= <no>
$$ ##$RGTYPE= (0..31)
$$ 9 0 0 0 0 0 0 0 0 0 0 0 0 0 0 0 0 0 0 0 0 0 0 0 0 0 0 0 0 0 0 0
$$ ##$RG_max= (0..31)
$$ 2050 -1 -1 -1 -1 -1 -1 -1 -1 -1 -1 -1 -1 -1 -1 -1 -1 -1 -1 -1 -1 -1 -1
$$ -1 -1 -1 -1 -1 -1 -1 -1 -1
$$ ##$RG_min= (0..31)
$$ 0.25 -1 -1 -1 -1 -1 -1 -1 -1 -1 -1 -1 -1 -1 -1 -1 -1 -1 -1 -1 -1 -1 -1
$$ -1 -1 -1 -1 -1 -1 -1 -1 -1
$$ ##$RG_tab1= (0..255)
$$ 0.25 0.28 0.32 0.35 0.4 0.44 0.5 0.56 0.64 0.7 0.8 0.89 1 1.12 1.28 1.4
$$ 1.6 1.78 2 2.25 2.56 2.8 3.2 3.56 4 4.5 5 5.6 6.35 7.12 8 9 10 11.3 12.7
$$ 14.2 16 18 20.2 22.6 25.4 28.5 32 36 40.3 45.2 50.8 57 64 71.8 80.6 90.5
$$ 101 114 128 144 161 181 203 228 256 287 322 362 406 456 512 575 645 724
$$ 812 912 1030 1150 1290 1440 1620 1820 2050 -1 -1 -1 -1 -1 -1 -1 -1 -1 -1
$$ -1 -1 -1 -1 -1 -1 -1 -1 -1 -1 -1 -1 -1 -1 -1 -1 -1 -1 -1 -1 -1 -1 -1 -1
$$ -1 -1 -1 -1 -1 -1 -1 -1 -1 -1 -1 -1 -1 -1 -1 -1 -1 -1 -1 -1 -1 -1 -1 -1
$$ -1 -1 -1 -1 -1 -1 -1 -1 -1 -1 -1 -1 -1 -1 -1 -1 -1 -1 -1 -1 -1 -1 -1 -1
$$ -1 -1 -1 -1 -1 -1 -1 -1 -1 -1 -1 -1 -1 -1 -1 -1 -1 -1 -1 -1 -1 -1 -1 -1
$$ -1 -1 -1 -1 -1 -1 -1 -1 -1 -1 -1 -1 -1 -1 -1 -1 -1 -1 -1 -1 -1 -1 -1 -1
$$ -1 -1 -1 -1 -1 -1 -1 -1 -1 -1 -1 -1 -1 -1 -1 -1 -1 -1 -1 -1 -1 -1 -1 -1
$$ -1 -1 -1 -1 -1 -1 -1 -1 -1 -1 -1 -1 -1 -1 -1 -1 -1 -1 -1 -1 -1 -1 -1
$$ ##$RG_tab2= (0..255)
$$ -1 -1 -1 -1 -1 -1 -1 -1 -1 -1 -1 -1 -1 -1 -1 -1 -1 -1 -1 -1 -1 -1 -1 -1
$$ -1 -1 -1 -1 -1 -1 -1 -1 -1 -1 -1 -1 -1 -1 -1 -1 -1 -1 -1 -1 -1 -1 -1 -1
$$ -1 -1 -1 -1 -1 -1 -1 -1 -1 -1 -1 -1 -1 -1 -1 -1 -1 -1 -1 -1 -1 -1 -1 -1
$$ -1 -1 -1 -1 -1 -1 -1 -1 -1 -1 -1 -1 -1 -1 -1 -1 -1 -1 -1 -1 -1 -1 -1 -1
$$ -1 -1 -1 -1 -1 -1 -1 -1 -1 -1 -1 -1 -1 -1 -1 -1 -1 -1 -1 -1 -1 -1 -1 -1
$$ -1 -1 -1 -1 -1 -1 -1 -1 -1 -1 -1 -1 -1 -1 -1 -1 -1 -1 -1 -1 -1 -1 -1 -1
$$ -1 -1 -1 -1 -1 -1 -1 -1 -1 -1 -1 -1 -1 -1 -1 -1 -1 -1 -1 -1 -1 -1 -1 -1
$$ -1 -1 -1 -1 -1 -1 -1 -1 -1 -1 -1 -1 -1 -1 -1 -1 -1 -1 -1 -1 -1 -1 -1 -1
$$ -1 -1 -1 -1 -1 -1 -1 -1 -1 -1 -1 -1 -1 -1 -1 -1 -1 -1 -1 -1 -1 -1 -1 -1
$$ -1 -1 -1 -1 -1 -1 -1 -1 -1 -1 -1 -1 -1 -1 -1 -1 -1 -1 -1 -1 -1 -1 -1 -1
$$ -1 -1 -1 -1 -1 -1 -1 -1 -1 -1 -1 -1 -1 -1 -1 -1
$$ ##$RG_tab3= (0..255)
$$ -1 -1 -1 -1 -1 -1 -1 -1 -1 -1 -1 -1 -1 -1 -1 -1 -1 -1 -1 -1 -1 -1 -1 -1
$$ -1 -1 -1 -1 -1 -1 -1 -1 -1 -1 -1 -1 -1 -1 -1 -1 -1 -1 -1 -1 -1 -1 -1 -1
$$ -1 -1 -1 -1 -1 -1 -1 -1 -1 -1 -1 -1 -1 -1 -1 -1 -1 -1 -1 -1 -1 -1 -1 -1
$$ -1 -1 -1 -1 -1 -1 -1 -1 -1 -1 -1 -1 -1 -1 -1 -1 -1 -1 -1 -1 -1 -1 -1 -1
$$ -1 -1 -1 -1 -1 -1 -1 -1 -1 -1 -1 -1 -1 -1 -1 -1 -1 -1 -1 -1 -1 -1 -1 -1
$$ -1 -1 -1 -1 -1 -1 -1 -1 -1 -1 -1 -1 -1 -1 -1 -1 -1 -1 -1 -1 -1 -1 -1 -1
$$ -1 -1 -1 -1 -1 -1 -1 -1 -1 -1 -1 -1 -1 -1 -1 -1 -1 -1 -1 -1 -1 -1 -1 -1
$$ -1 -1 -1 -1 -1 -1 -1 -1 -1 -1 -1 -1 -1 -1 -1 -1 -1 -1 -1 -1 -1 -1 -1 -1
$$ -1 -1 -1 -1 -1 -1 -1 -1 -1 -1 -1 -1 -1 -1 -1 -1 -1 -1 -1 -1 -1 -1 -1 -1
$$ -1 -1 -1 -1 -1 -1 -1 -1 -1 -1 -1 -1 -1 -1 -1 -1 -1 -1 -1 -1 -1 -1 -1 -1
$$ -1 -1 -1 -1 -1 -1 -1 -1 -1 -1 -1 -1 -1 -1 -1 -1
$$ ##$RG_tab4= (0..255)
$$ -1 -1 -1 -1 -1 -1 -1 -1 -1 -1 -1 -1 -1 -1 -1 -1 -1 -1 -1 -1 -1 -1 -1 -1
$$ -1 -1 -1 -1 -1 -1 -1 -1 -1 -1 -1 -1 -1 -1 -1 -1 -1 -1 -1 -1 -1 -1 -1 -1
$$ -1 -1 -1 -1 -1 -1 -1 -1 -1 -1 -1 -1 -1 -1 -1 -1 -1 -1 -1 -1 -1 -1 -1 -1
$$ -1 -1 -1 -1 -1 -1 -1 -1 -1 -1 -1 -1 -1 -1 -1 -1 -1 -1 -1 -1 -1 -1 -1 -1
$$ -1 -1 -1 -1 -1 -1 -1 -1 -1 -1 -1 -1 -1 -1 -1 -1 -1 -1 -1 -1 -1 -1 -1 -1
$$ -1 -1 -1 -1 -1 -1 -1 -1 -1 -1 -1 -1 -1 -1 -1 -1 -1 -1 -1 -1 -1 -1 -1 -1
$$ -1 -1 -1 -1 -1 -1 -1 -1 -1 -1 -1 -1 -1 -1 -1 -1 -1 -1 -1 -1 -1 -1 -1 -1
$$ -1 -1 -1 -1 -1 -1 -1 -1 -1 -1 -1 -1 -1 -1 -1 -1 -1 -1 -1 -1 -1 -1 -1 -1
$$ -1 -1 -1 -1 -1 -1 -1 -1 -1 -1 -1 -1 -1 -1 -1 -1 -1 -1 -1 -1 -1 -1 -1 -1
$$ -1 -1 -1 -1 -1 -1 -1 -1 -1 -1 -1 -1 -1 -1 -1 -1 -1 -1 -1 -1 -1 -1 -1 -1
$$ -1 -1 -1 -1 -1 -1 -1 -1 -1 -1 -1 -1 -1 -1 -1 -1
$$ ##$RG_tab5= (0..255)
$$ -1 -1 -1 -1 -1 -1 -1 -1 -1 -1 -1 -1 -1 -1 -1 -1 -1 -1 -1 -1 -1 -1 -1 -1
$$ -1 -1 -1 -1 -1 -1 -1 -1 -1 -1 -1 -1 -1 -1 -1 -1 -1 -1 -1 -1 -1 -1 -1 -1
$$ -1 -1 -1 -1 -1 -1 -1 -1 -1 -1 -1 -1 -1 -1 -1 -1 -1 -1 -1 -1 -1 -1 -1 -1
$$ -1 -1 -1 -1 -1 -1 -1 -1 -1 -1 -1 -1 -1 -1 -1 -1 -1 -1 -1 -1 -1 -1 -1 -1
$$ -1 -1 -1 -1 -1 -1 -1 -1 -1 -1 -1 -1 -1 -1 -1 -1 -1 -1 -1 -1 -1 -1 -1 -1
$$ -1 -1 -1 -1 -1 -1 -1 -1 -1 -1 -1 -1 -1 -1 -1 -1 -1 -1 -1 -1 -1 -1 -1 -1
$$ -1 -1 -1 -1 -1 -1 -1 -1 -1 -1 -1 -1 -1 -1 -1 -1 -1 -1 -1 -1 -1 -1 -1 -1
$$ -1 -1 -1 -1 -1 -1 -1 -1 -1 -1 -1 -1 -1 -1 -1 -1 -1 -1 -1 -1 -1 -1 -1 -1
$$ -1 -1 -1 -1 -1 -1 -1 -1 -1 -1 -1 -1 -1 -1 -1 -1 -1 -1 -1 -1 -1 -1 -1 -1
$$ -1 -1 -1 -1 -1 -1 -1 -1 -1 -1 -1 -1 -1 -1 -1 -1 -1 -1 -1 -1 -1 -1 -1 -1
$$ -1 -1 -1 -1 -1 -1 -1 -1 -1 -1 -1 -1 -1 -1 -1 -1
$$ ##$RG_tab6= (0..255)
$$ -1 -1 -1 -1 -1 -1 -1 -1 -1 -1 -1 -1 -1 -1 -1 -1 -1 -1 -1 -1 -1 -1 -1 -1
$$ -1 -1 -1 -1 -1 -1 -1 -1 -1 -1 -1 -1 -1 -1 -1 -1 -1 -1 -1 -1 -1 -1 -1 -1
$$ -1 -1 -1 -1 -1 -1 -1 -1 -1 -1 -1 -1 -1 -1 -1 -1 -1 -1 -1 -1 -1 -1 -1 -1
$$ -1 -1 -1 -1 -1 -1 -1 -1 -1 -1 -1 -1 -1 -1 -1 -1 -1 -1 -1 -1 -1 -1 -1 -1
$$ -1 -1 -1 -1 -1 -1 -1 -1 -1 -1 -1 -1 -1 -1 -1 -1 -1 -1 -1 -1 -1 -1 -1 -1
$$ -1 -1 -1 -1 -1 -1 -1 -1 -1 -1 -1 -1 -1 -1 -1 -1 -1 -1 -1 -1 -1 -1 -1 -1
$$ -1 -1 -1 -1 -1 -1 -1 -1 -1 -1 -1 -1 -1 -1 -1 -1 -1 -1 -1 -1 -1 -1 -1 -1
$$ -1 -1 -1 -1 -1 -1 -1 -1 -1 -1 -1 -1 -1 -1 -1 -1 -1 -1 -1 -1 -1 -1 -1 -1
$$ -1 -1 -1 -1 -1 -1 -1 -1 -1 -1 -1 -1 -1 -1 -1 -1 -1 -1 -1 -1 -1 -1 -1 -1
$$ -1 -1 -1 -1 -1 -1 -1 -1 -1 -1 -1 -1 -1 -1 -1 -1 -1 -1 -1 -1 -1 -1 -1 -1
$$ -1 -1 -1 -1 -1 -1 -1 -1 -1 -1 -1 -1 -1 -1 -1 -1
$$ ##$RG_tab7= (0..255)
$$ -1 -1 -1 -1 -1 -1 -1 -1 -1 -1 -1 -1 -1 -1 -1 -1 -1 -1 -1 -1 -1 -1 -1 -1
$$ -1 -1 -1 -1 -1 -1 -1 -1 -1 -1 -1 -1 -1 -1 -1 -1 -1 -1 -1 -1 -1 -1 -1 -1
$$ -1 -1 -1 -1 -1 -1 -1 -1 -1 -1 -1 -1 -1 -1 -1 -1 -1 -1 -1 -1 -1 -1 -1 -1
$$ -1 -1 -1 -1 -1 -1 -1 -1 -1 -1 -1 -1 -1 -1 -1 -1 -1 -1 -1 -1 -1 -1 -1 -1
$$ -1 -1 -1 -1 -1 -1 -1 -1 -1 -1 -1 -1 -1 -1 -1 -1 -1 -1 -1 -1 -1 -1 -1 -1
$$ -1 -1 -1 -1 -1 -1 -1 -1 -1 -1 -1 -1 -1 -1 -1 -1 -1 -1 -1 -1 -1 -1 -1 -1
$$ -1 -1 -1 -1 -1 -1 -1 -1 -1 -1 -1 -1 -1 -1 -1 -1 -1 -1 -1 -1 -1 -1 -1 -1
$$ -1 -1 -1 -1 -1 -1 -1 -1 -1 -1 -1 -1 -1 -1 -1 -1 -1 -1 -1 -1 -1 -1 -1 -1
$$ -1 -1 -1 -1 -1 -1 -1 -1 -1 -1 -1 -1 -1 -1 -1 -1 -1 -1 -1 -1 -1 -1 -1 -1
$$ -1 -1 -1 -1 -1 -1 -1 -1 -1 -1 -1 -1 -1 -1 -1 -1 -1 -1 -1 -1 -1 -1 -1 -1
$$ -1 -1 -1 -1 -1 -1 -1 -1 -1 -1 -1 -1 -1 -1 -1 -1
$$ ##$RG_tab8= (0..255)
$$ -1 -1 -1 -1 -1 -1 -1 -1 -1 -1 -1 -1 -1 -1 -1 -1 -1 -1 -1 -1 -1 -1 -1 -1
$$ -1 -1 -1 -1 -1 -1 -1 -1 -1 -1 -1 -1 -1 -1 -1 -1 -1 -1 -1 -1 -1 -1 -1 -1
$$ -1 -1 -1 -1 -1 -1 -1 -1 -1 -1 -1 -1 -1 -1 -1 -1 -1 -1 -1 -1 -1 -1 -1 -1
$$ -1 -1 -1 -1 -1 -1 -1 -1 -1 -1 -1 -1 -1 -1 -1 -1 -1 -1 -1 -1 -1 -1 -1 -1
$$ -1 -1 -1 -1 -1 -1 -1 -1 -1 -1 -1 -1 -1 -1 -1 -1 -1 -1 -1 -1 -1 -1 -1 -1
$$ -1 -1 -1 -1 -1 -1 -1 -1 -1 -1 -1 -1 -1 -1 -1 -1 -1 -1 -1 -1 -1 -1 -1 -1
$$ -1 -1 -1 -1 -1 -1 -1 -1 -1 -1 -1 -1 -1 -1 -1 -1 -1 -1 -1 -1 -1 -1 -1 -1
$$ -1 -1 -1 -1 -1 -1 -1 -1 -1 -1 -1 -1 -1 -1 -1 -1 -1 -1 -1 -1 -1 -1 -1 -1
$$ -1 -1 -1 -1 -1 -1 -1 -1 -1 -1 -1 -1 -1 -1 -1 -1 -1 -1 -1 -1 -1 -1 -1 -1
$$ -1 -1 -1 -1 -1 -1 -1 -1 -1 -1 -1 -1 -1 -1 -1 -1 -1 -1 -1 -1 -1 -1 -1 -1
$$ -1 -1 -1 -1 -1 -1 -1 -1 -1 -1 -1 -1 -1 -1 -1 -1
$$ ##$RG_tabA= (0..255)
$$ 0.25 0.28 0.32 0.35 0.4 0.44 0.5 0.56 0.64 0.7 0.8 0.89 1 1.12 1.28 1.4
$$ 1.6 1.78 2 2.25 2.56 2.8 3.2 3.56 4 4.5 5 5.6 6.35 7.12 8 9 10 11.3 12.7
$$ 14.2 16 18 20.2 22.6 25.4 28.5 32 36 40.3 45.2 50.8 57 64 71.8 80.6 90.5
$$ 101 114 128 144 161 181 203 228 256 287 322 362 406 456 512 575 645 724
$$ 812 912 1030 1150 1290 1440 1620 1820 2050 -1 -1 -1 -1 -1 -1 -1 -1 -1 -1
$$ -1 -1 -1 -1 -1 -1 -1 -1 -1 -1 -1 -1 -1 -1 -1 -1 -1 -1 -1 -1 -1 -1 -1 -1
$$ -1 -1 -1 -1 -1 -1 -1 -1 -1 -1 -1 -1 -1 -1 -1 -1 -1 -1 -1 -1 -1 -1 -1 -1
$$ -1 -1 -1 -1 -1 -1 -1 -1 -1 -1 -1 -1 -1 -1 -1 -1 -1 -1 -1 -1 -1 -1 -1 -1
$$ -1 -1 -1 -1 -1 -1 -1 -1 -1 -1 -1 -1 -1 -1 -1 -1 -1 -1 -1 -1 -1 -1 -1 -1
$$ -1 -1 -1 -1 -1 -1 -1 -1 -1 -1 -1 -1 -1 -1 -1 -1 -1 -1 -1 -1 -1 -1 -1 -1
$$ -1 -1 -1 -1 -1 -1 -1 -1 -1 -1 -1 -1 -1 -1 -1 -1 -1 -1 -1 -1 -1 -1 -1 -1
$$ -1 -1 -1 -1 -1 -1 -1 -1 -1 -1 -1 -1 -1 -1 -1 -1 -1 -1 -1 -1 -1 -1 -1
$$ ##$ROBOTTY= <no>
$$ ##$ROUT14= (0..7)
$$ 0 0 0 0 0 0 0 0
$$ ##$ROUTER= -1
$$ ##$RX22TY= <no>
$$ ##$RXFMAX= (0..7)
$$ 647.5 -1 -1 -1 -1 -1 -1 -1
$$ ##$RXFMIN= (0..7)
$$ 5 -1 -1 -1 -1 -1 -1 -1
$$ ##$RXINTLV= (0..7)
$$ 1 0 0 0 0 0 0 0
$$ ##$RXMSTY= <no>
$$ ##$RockSwitchEth= <no>
$$ ##$SCMTY= <no>
$$ ##$SGUC1= (0..15)
$$ 17 18 0 0 0 0 0 0 0 0 0 0 0 0 0 0
$$ ##$SGUC2= (0..15)
$$ 20 256 0 0 0 0 0 0 0 0 0 0 0 0 0 0
$$ ##$SLCBCONF= <SHNV>
$$ ##$SPECTR= 10
$$ ##$SY2FLAG= 0
$$ ##$SYNCTRIG= 11
$$ ##$SamChgEth= (0..3)
$$ <149.236.99.173> <no> <no> <no>
$$ ##$SamChgProtocol= (0..3)
$$ <SOAP> <> <> <>
$$ ##$ServiceNo= <>
$$ ##$Sgu1PowerLevels= (0..7)
$$ 90 74 58 42 26 10 0 0
$$ ##$Sgu2PowerLevels= (0..7)
$$ 90 74 58 42 26 10 0 0
$$ ##$Sgu3PowerLevels= (0..7)
$$ 0 0 0 0 0 0 0 0
$$ ##$Sgu4PowerLevels= (0..7)
$$ 0 0 0 0 0 0 0 0
$$ ##$Sgu5PowerLevels= (0..7)
$$ 0 0 0 0 0 0 0 0
$$ ##$Sgu6PowerLevels= (0..7)
$$ 0 0 0 0 0 0 0 0
$$ ##$Sgu7PowerLevels= (0..7)
$$ 0 0 0 0 0 0 0 0
$$ ##$Sgu8PowerLevels= (0..7)
$$ 0 0 0 0 0 0 0 0
$$ ##$SguType= 3
$$ ##$ShimMaxVal= 32760
$$ ##$ShimPow1Ch2Sh= (0..38)
$$ 0 0 0 0 0 0 0 0 0 0 0 0 0 0 0 0 0 0 0 0 0 0 0 0 0 0 0 0 0 0 0 0 0 0 0 0
$$ 0 0 0
$$ ##$ShimPow1Imax= (0..38)
$$ 0 0 0 0 0 0 0 0 0 0 0 0 0 0 0 0 0 0 0 0 0 0 0 0 0 0 0 0 0 0 0 0 0 0 0 0
$$ 0 0 0
$$ ##$ShimPow1NChan= 0
$$ ##$ShimPow1TotIMax= 0
$$ ##$ShimPow1Vmax= (0..38)
$$ 0 0 0 0 0 0 0 0 0 0 0 0 0 0 0 0 0 0 0 0 0 0 0 0 0 0 0 0 0 0 0 0 0 0 0 0
$$ 0 0 0
$$ ##$ShimPow2Ch2Sh= (0..38)
$$ 0 0 0 0 0 0 0 0 0 0 0 0 0 0 0 0 0 0 0 0 0 0 0 0 0 0 0 0 0 0 0 0 0 0 0 0
$$ 0 0 0
$$ ##$ShimPow2Imax= (0..38)
$$ 0 0 0 0 0 0 0 0 0 0 0 0 0 0 0 0 0 0 0 0 0 0 0 0 0 0 0 0 0 0 0 0 0 0 0 0
$$ 0 0 0
$$ ##$ShimPow2NChan= 0
$$ ##$ShimPow2TotIMax= 0
$$ ##$ShimPow2Vmax= (0..38)
$$ 0 0 0 0 0 0 0 0 0 0 0 0 0 0 0 0 0 0 0 0 0 0 0 0 0 0 0 0 0 0 0 0 0 0 0 0
$$ 0 0 0
$$ ##$ShimPow3Ch2Sh= (0..38)
$$ 0 0 0 0 0 0 0 0 0 0 0 0 0 0 0 0 0 0 0 0 0 0 0 0 0 0 0 0 0 0 0 0 0 0 0 0
$$ 0 0 0
$$ ##$ShimPow3Imax= (0..38)
$$ 0 0 0 0 0 0 0 0 0 0 0 0 0 0 0 0 0 0 0 0 0 0 0 0 0 0 0 0 0 0 0 0 0 0 0 0
$$ 0 0 0
$$ ##$ShimPow3NChan= 0
$$ ##$ShimPow3TotIMax= 0
$$ ##$ShimPow3Vmax= (0..38)
$$ 0 0 0 0 0 0 0 0 0 0 0 0 0 0 0 0 0 0 0 0 0 0 0 0 0 0 0 0 0 0 0 0 0 0 0 0
$$ 0 0 0
$$ ##$ShimPow4Ch2Sh= (0..38)
$$ 0 0 0 0 0 0 0 0 0 0 0 0 0 0 0 0 0 0 0 0 0 0 0 0 0 0 0 0 0 0 0 0 0 0 0 0
$$ 0 0 0
$$ ##$ShimPow4Imax= (0..38)
$$ 0 0 0 0 0 0 0 0 0 0 0 0 0 0 0 0 0 0 0 0 0 0 0 0 0 0 0 0 0 0 0 0 0 0 0 0
$$ 0 0 0
$$ ##$ShimPow4NChan= 0
$$ ##$ShimPow4TotIMax= 0
$$ ##$ShimPow4Vmax= (0..38)
$$ 0 0 0 0 0 0 0 0 0 0 0 0 0 0 0 0 0 0 0 0 0 0 0 0 0 0 0 0 0 0 0 0 0 0 0 0
$$ 0 0 0
$$ ##$ShimPowMaxUA= (0..63)
$$ 130000 130000 130000 130000 130000 130000 130000 130000 130000 130000 130000
$$ 130000 130000 130000 130000 130000 130000 130000 130000 130000 130000 130000
$$ 130000 130000 130000 130000 130000 130000 130000 130000 130000 130000 130000
$$ 130000 130000 130000 130000 130000 130000 130000 0 0 0 0 0 0 0 0 0 0 0
$$ 0 0 0 0 0 0 0 0 0 0 0 0 0
$$ ##$ShimPowMaxUC= (0..63)
$$ 130000 130000 130000 130000 130000 130000 130000 130000 130000 130000 130000
$$ 130000 130000 130000 130000 130000 130000 130000 130000 130000 130000 130000
$$ 130000 130000 130000 130000 130000 130000 130000 130000 130000 130000 130000
$$ 130000 130000 130000 130000 130000 130000 130000 0 0 0 0 0 0 0 0 0 0 0
$$ 0 0 0 0 0 0 0 0 0 0 0 0 0
$$ ##$ShimPowMaxUG= (0..63)
$$ 524287 524287 524287 524287 524287 524287 524287 524287 524287 524287 524287
$$ 524287 524287 524287 524287 524287 524287 524287 524287 524287 524287 524287
$$ 524287 524287 524287 524287 524287 524287 524287 524287 524287 524287 524287
$$ 524287 524287 524287 524287 524287 524287 0 0 0 0 0 0 0 0 0 0 0 0 0 0 0
$$ 0 0 0 0 0 0 0 0 0 0
$$ ##$ShimPowNum= 0
$$ ##$ShimPowRcbType= 3
$$ ##$ShimPowRes= (0..63)
$$ 1e-020 1e-020 1e-020 1e-020 1e-020 1e-020 1e-020 1e-020 1e-020 1e-020 1e-020
$$ 1e-020 1e-020 1e-020 1e-020 1e-020 1e-020 1e-020 1e-020 1e-020 1e-020 1e-020
$$ 1e-020 1e-020 1e-020 1e-020 1e-020 1e-020 1e-020 1e-020 1e-020 1e-020 1e-020
$$ 1e-020 1e-020 1e-020 1e-020 1e-020 1e-020 1e-020 0 0 0 0 0 0 0 0 0 0 0
$$ 0 0 0 0 0 0 0 0 0 0 0 0 0
$$ ##$ShimPowRng0= (0..63)
$$ 1 1 1 1 1 1 1 1 1 1 1 1 1 1 1 1 1 1 1 1 1 1 1 1 1 1 1 1 1 1 1 1 1 1 1 1
$$ 1 1 1 1 0 0 0 0 0 0 0 0 0 0 0 0 0 0 0 0 0 0 0 0 0 0 0 0
$$ ##$ShimPowRng1= (0..63)
$$ 1 1 1 1 1 1 1 1 1 1 1 1 1 1 1 1 1 1 1 1 1 1 1 1 1 1 1 1 1 1 1 1 1 1 1 1
$$ 1 1 1 1 0 0 0 0 0 0 0 0 0 0 0 0 0 0 0 0 0 0 0 0 0 0 0 0
$$ ##$ShimPowRng2= (0..63)
$$ 1 1 1 1 1 1 1 1 1 1 1 1 1 1 1 1 1 1 1 1 1 1 1 1 1 1 1 1 1 1 1 1 1 1 1 1
$$ 1 1 1 1 0 0 0 0 0 0 0 0 0 0 0 0 0 0 0 0 0 0 0 0 0 0 0 0
$$ ##$ShimPowRng3= (0..63)
$$ 1 1 1 1 1 1 1 1 1 1 1 1 1 1 1 1 1 1 1 1 1 1 1 1 1 1 1 1 1 1 1 1 1 1 1 1
$$ 1 1 1 1 0 0 0 0 0 0 0 0 0 0 0 0 0 0 0 0 0 0 0 0 0 0 0 0
$$ ##$ShimPowType1= 0
$$ ##$ShimPowType2= 0
$$ ##$ShimPowType3= 0
$$ ##$ShimPowType4= 0
$$ ##$ShimSysAngle= <>
$$ ##$ShimSysFunc= (0..63)
$$ 1 2 3 4 5 6 7 8 9 10 0 37 38 35 16 15 14 13 12 11 28 27 26 25 24 23 36
$$ 22 30 29 20 21 34 33 32 31 17 18 19 0 0 0 0 0 0 0 0 0 0 0 0 0 0 0 0 0 0
$$ 0 0 0 0 0 0 0
$$ ##$ShimSysMatId= <no>
$$ ##$ShimSysMatrix= 1
$$ ##$ShimSysOffset= <>
$$ ##$ShimSysType= 4
$$ ##$ShimUnit= 0
$$ ##$TFXNUM= 0
$$ ##$TOSITY= <no>
$$ ##$TRIPLO2= 0
$$ ##$VTU= 2
$$ ##$VTUETH= <149.236.99.20>
$$ ##$VTUTY= <no>
$$ ##$WBREFAM= (0..15)
$$ 100.3 100 100 100 100 100 100 100 100 100 100 100 100 100 100 100
$$ ##$WBREFLM= (0..15)
$$ 1 0 0 0 0 0 0 0 0 0 0 0 0 0 0 0
$$ ##$WBREFPH= (0..15)
$$ 0.11 0 0 0 0 0 0 0 0 0 0 0 0 0 0 0
$$ ##$WBSGU= (0..15)
$$ 0 0 0 0 0 0 0 0 0 0 0 0 0 0 0 0
$$ ##$XFAC= 2
$$ ##END=
##$RELAX= 
##$BRUKER FILE PROC=integrals.txt
$$    Current data set:
$$    NAME =	Cyclopropylmethylalkohol	EXPNO =	170	PROCNO = 1
$$    DU   =	G:/data/Datenbank/Erstellte Datenbank
$$ 
$$    Number   Integrated Region     Integral
$$      1      3.496      3.400         2.00782
$$      2      1.673      1.610         1.10654
$$      3      1.178      1.031         1.01078
$$      4      0.585      0.475         1.99939
$$      5      0.264      0.158         2.00000
##$RELAX= 
##$BRUKER FILE PROC=intrng
$$ A 1.0 #regions in PPM
$$ # low field   high field  bias        slope
$$   3.496187059478252  3.399600127582359  -0.0  -0.0  # for region 1
$$   1.67294629797259  1.610413839261964  -0.0  -0.0  # for region 2
$$   1.1783713972612757  1.0305674039452508  -0.0  -0.0  # for region 3
$$   0.5849356570645912  0.47506260796732336  -0.0  -0.0  # for region 4
$$   0.26401149926969386  0.1580907181255652  -0.0  -0.0  # for region 5
##$RELAX= 
##$BRUKER FILE PROC=parm.txt
$$ 
$$ Current Data Parameters
$$ NAME     20241028-AVIII600              
$$ EXPNO               170              
$$ PROCNO                1              
$$ 
$$ F2 - Acquisition Parameters
$$ Date_          20241028              
$$ Time              12.49 h            
$$ INSTRUM           spect              
$$ PROBHD   Z114607_0100 (              
$$ PULPROG            zg30              
$$ TD                65536              
$$ SOLVENT           CDCl3              
$$ NS                   16              
$$ DS                    2              
$$ SWH           12019.230 Hz           
$$ FIDRES         0.366798 Hz           
$$ AQ            2.7262976 sec          
$$ RG                   64              
$$ DW               41.600 usec         
$$ DE                12.05 usec         
$$ TE                298.0 K            
$$ D1           1.00000000 sec          
$$ TD0                   1              
$$ SFO1        600.1337058 MHz          
$$ NUC1                 1H              
$$ P0                 3.46 usec         
$$ P1                10.37 usec         
$$ PLW1        29.99200058 W            
$$ 
$$ F2 - Processing parameters
$$ SI                65536              
$$ SF          600.1301293 MHz          
$$ WDW                  EM              
$$ SSB                   0              
$$ LB                 0.30 Hz           
$$ GB                    0              
$$ PC                 1.00              
##$RELAX= 
##$BRUKER FILE PROC=peaklist.xml
$$ <?xml version="1.0" encoding="UTF-8"?>
$$ <PeakList modified="2024-11-26T15:04:41">
$$   <PeakList1D>
$$     <PeakList1DHeader creator="hackl" date="2024-11-26T15:04:40" expNo="170" name="Cyclopropylmethylalkohol" owner="" procNo="1" source="G:\data\Datenbank\Erstellte Datenbank">
$$       <PeakPickDetails>F1=3.814101ppm, F2=3.121967ppm, MI=12.98cm, MAXI=16.95cm, PC=1.000
$$       </PeakPickDetails>
$$     </PeakList1DHeader>
$$     <Peak1D F1="3.45011" intensity="14.88665" type="0"/>
$$     <Peak1D F1="3.438379" intensity="15.0" type="0"/>
$$   </PeakList1D>
$$   <PeakList1D>
$$     <PeakList1DHeader creator="hackl" date="2024-11-26T15:04:40" expNo="170" name="Cyclopropylmethylalkohol" owner="" procNo="1" source="G:\data\Datenbank\Erstellte Datenbank">
$$       <PeakPickDetails>F1=2.046950ppm, F2=-0.397609ppm, MI=0.93cm, MAXI=9.82cm, PC=1.000
$$       </PeakPickDetails>
$$     </PeakList1DHeader>
$$     <Peak1D F1="1.634786" intensity="3.4141" type="0"/>
$$     <Peak1D F1="1.116813" intensity="1.313983" type="0"/>
$$     <Peak1D F1="1.115467" intensity="1.491364" type="0"/>
$$     <Peak1D F1="1.111701" intensity="1.31673" type="0"/>
$$     <Peak1D F1="1.108973" intensity="0.9768533" type="0"/>
$$     <Peak1D F1="1.107401" intensity="0.9452974" type="0"/>
$$     <Peak1D F1="1.103645" intensity="2.460541" type="0"/>
$$     <Peak1D F1="1.10003" intensity="0.9387336" type="0"/>
$$     <Peak1D F1="1.098402" intensity="1.0052" type="0"/>
$$     <Peak1D F1="1.095575" intensity="1.38551" type="0"/>
$$     <Peak1D F1="1.091782" intensity="1.43558" type="0"/>
$$     <Peak1D F1="1.09043" intensity="1.565473" type="0"/>
$$     <Peak1D F1="0.547292" intensity="1.923703" type="0"/>
$$     <Peak1D F1="0.539698" intensity="5.896625" type="0"/>
$$     <Peak1D F1="0.537712" intensity="6.158036" type="0"/>
$$     <Peak1D F1="0.534381" intensity="2.659392" type="0"/>
$$     <Peak1D F1="0.530115" intensity="2.548257" type="0"/>
$$     <Peak1D F1="0.526387" intensity="5.973219" type="0"/>
$$     <Peak1D F1="0.524356" intensity="5.813749" type="0"/>
$$     <Peak1D F1="0.516859" intensity="2.099018" type="0"/>
$$     <Peak1D F1="0.225353" intensity="2.078012" type="0"/>
$$     <Peak1D F1="0.21775" intensity="7.145763" type="0"/>
$$     <Peak1D F1="0.2163" intensity="6.86255" type="0"/>
$$     <Peak1D F1="0.207996" intensity="7.354709" type="0"/>
$$     <Peak1D F1="0.200225" intensity="1.746476" type="0"/>
$$     <Peak1D F1="-1.45E-4" intensity="4.143159" type="0"/>
$$   </PeakList1D>
$$ </PeakList>
##$RELAX= 
##$BRUKER FILE PROC=peakrng
$$ P    #regions in PPM
$$ # 2024-11-26 15:04:45 +0100  hackl@NMR18
$$ # low field   high field   mi   maxi
$$   3.814100996749936  3.1219668390385578  12.979  16.946  # for region 1
$$   2.0469499557847146  -0.39760898421717483  0.927  9.819  # for region 2
##$RELAX= 
$$ Bruker specific parameters
$$ --------------------------
##$DATPATH= <C:/Users/User/Documents/Experimentierraum>
##$EXPNO= 170
##$NAME= <Cyclopropylmethylalkohol>
##$PROCNO= 1
##$ACQT0= -1.76893276833414
##$AMP= (0..31)
100 100 100 100 100 100 100 100 100 100 100 100 100 100 100 100 100 100
100 100 100 100 100 100 100 100 100 100 100 100 100 100
##$AMPCOIL= (0..32)
-1 0 0 0 0 0 0 0 0 0 0 0 0 0 0 0 0 0 0 0 0 0 0 0 0 0 0 0 0 0 0 0 0
##$AQSEQ= 0
##$AQ_mod= 3
##$AUNM= <au_zg>
##$AUTOPOS= <1 >
##$BF1= 600.13
##$BF2= 600.13
##$BF3= 600.13
##$BF4= 600.13
##$BF5= 600.13
##$BF6= 600.13
##$BF7= 600.13
##$BF8= 600.13
##$BWFAC= (0..63)
0 0 0 0 0 0 0 0 0 0 0 0 0 0 0 0 0 0 0 0 0 0 0 0 0 0 0 0 0 0 0 0 0 0 0 0
0 0 0 0 0 0 0 0 0 0 0 0 0 0 0 0 0 0 0 0 0 0 0 0 0 0 0 0
##$BYTORDA= 0
##$CHANFCU= (0..24)
0 0 0 0 0 0 0 0 0 0 0 0 0 0 0 0 0 0 0 0 0 0 0 0 0
##$CHANREC= (0..24)
0 0 0 0 0 0 0 0 0 0 0 0 0 0 0 0 0 0 0 0 0 0 0 0 0
##$CHEMSTR= <none>
##$CNST= (0..63)
1 1 1 1 1 1 1 1 1 1 1 1 1 1 1 1 1 1 1 1 1 1 1 1 1 1 1 1 1 1 1 1 1 1 1 1
1 1 1 1 1 1 1 1 1 1 1 1 1 1 1 1 1 1 1 1 1 1 1 1 1 1 1 1
##$CPDPRG= (0..8)
<> <> <> <> <> <> <> <> <>
##$D= (0..63)
0 1 0 0 0 0 0 0 0 0 0 0 0 0 0 0 0.0002 0 0 0 0 0 0 0 0 0 0 0 0 0 0 0 0
0 0 0 0 0 0 0 0 0 0 0 0 0 0 0 0 0 0 0 0 0 0 0 0 0 0 0 0 0 0 0
##$DATE= 1730116144
##$DATE_START= 1730116073
##$DE= 12.04607
##$DECBNUC= <off>
##$DECIM= 1664
##$DECNUC= <off>
##$DECSTAT= 4
##$DIGMOD= 3
##$DIGTYP= 12
##$DR= 22
##$DS= 2
##$DSPFIRM= 0
##$DSPFVS= 21
##$DTYPA= 0
##$EXP= <PROTON.AUT>
##$ExpStatus= 0
##$FCUCHAN= (0..9)
0 2 0 0 0 0 0 0 0 0
##$FILCOR= 0
##$FL1= 0
##$FL2= 0
##$FL3= 0
##$FL4= 0
##$FN_INDIRECT= (0..7)
0 0 0 0 0 0 0 0
##$FOV= 0
##$FQ1LIST= <>
##$FQ2LIST= <>
##$FQ3LIST= <>
##$FQ4LIST= <>
##$FQ5LIST= <>
##$FQ6LIST= <>
##$FQ7LIST= <>
##$FQ8LIST= <>
##$FS= (0..7)
83 83 83 83 83 83 83 83
##$FTLPGN= 0
##$FW= 4032000
##$FnILOOP= 0
##$FnMODE= 0
##$FnTYPE= 0
##$GPNAM= (0..31)
<> <> <> <> <> <> <> <> <> <> <> <> <> <> <> <> <> <> <> <> <> <> <> <>
<> <> <> <> <> <> <> <>
##$GPX= (0..31)
0 0 0 0 0 0 0 0 0 0 0 0 0 0 0 0 0 0 0 0 0 0 0 0 0 0 0 0 0 0 0 0
##$GPY= (0..31)
0 0 0 0 0 0 0 0 0 0 0 0 0 0 0 0 0 0 0 0 0 0 0 0 0 0 0 0 0 0 0 0
##$GPZ= (0..31)
0 0 0 0 0 0 0 0 0 0 0 0 0 0 0 0 0 0 0 0 0 0 0 0 0 0 0 0 0 0 0 0
##$GRPDLY= 76
##$GrpdlyHandling= 0
##$HDDUTY= 20
##$HDRATE= 1
##$HGAIN= (0..3)
0 0 0 0
##$HOLDER= 1
##$HPMOD= (0..32)
0 0 0 0 0 0 0 0 0 0 0 0 0 0 0 0 0 0 0 0 0 0 0 0 0 0 0 0 0 0 0 0 0
##$IN= (0..63)
0 0 0 0 0 0 0 0 0 0 0 0 0 0 0 0 0 0 0 0 0 0 0 0 0 0 0 0 0 0 0 0 0 0 0 0
0 0 0 0 0 0 0 0 0 0 0 0 0 0 0 0 0 0 0 0 0 0 0 0 0 0 0 0
##$INF= (0..7)
0 0 0 0 0 0 0 0
##$INP= (0..63)
0 0 0 0 0 0 0 0 0 0 0 0 0 0 0 0 0 0 0 0 0 0 0 0 0 0 0 0 0 0 0 0 0 0 0 0
0 0 0 0 0 0 0 0 0 0 0 0 0 0 0 0 0 0 0 0 0 0 0 0 0 0 0 0
##$INSTRUM= <spect>
##$INTEGFAC= (0..63)
0 0 0 0 0 0 0 0 0 0 0 0 0 0 0 0 0 0 0 0 0 0 0 0 0 0 0 0 0 0 0 0 0 0 0 0
0 0 0 0 0 0 0 0 0 0 0 0 0 0 0 0 0 0 0 0 0 0 0 0 0 0 0 0
##$L= (0..31)
1 1 1 1 1 1 1 1 1 1 1 1 1 1 1 1 1 1 1 1 1 1 1 1 1 1 1 1 1 1 1 1
##$LFILTER= 100
##$LGAIN= -12
##$LINPSTP= 0
##$LOCKED= yes
##$LOCKFLD= 3397
##$LOCKGN= 122.067138671875
##$LOCKPOW= -30
##$LOCKPPM= 7.23999977111816
##$LOCNUC= <2H>
##$LOCPHAS= 141.3187
##$LOCSHFT= yes
##$LOCSW= 0
##$LTIME= 0.400000005960464
##$MASR= 4200
##$MULEXPNO= (0..15)
0 0 0 0 0 0 0 0 0 0 0 0 0 0 0 0
##$NBL= 1
##$NC= -6
##$NLOGCH= 2
##$NOVFLW= 0
##$NS= 16
##$NUC1= <1H>
##$NUC2= <off>
##$NUC3= <off>
##$NUC4= <off>
##$NUC5= <off>
##$NUC6= <off>
##$NUC7= <off>
##$NUC8= <off>
##$NUCLEUS= <off>
##$NUSLIST= <automatic>
##$NusAMOUNT= 25
##$NusFPNZ= no
##$NusJSP= 0
##$NusSEED= 54321
##$NusSPTYPE= 0
##$NusT2= 1
##$NusTD= 0
##$O1= 3705.8
##$O2= 3705.8
##$O3= 3705.8
##$O4= 3705.8
##$O5= 3705.8
##$O6= 3705.8
##$O7= 3705.8
##$O8= 3705.8
##$OVERFLW= 0
##$P= (0..63)
3.456667 10.37 20.74 0 0 16.5 25 50 20000 0 0 80000 80000 1000 0 0 1000
0 100000 600 0 0 0 0 0 180 100000 10.37 1000 1000 0 0 20000 0 0 0 0 0 0
0 2000 0 0 0 200 0 80000 46600 10000 0 80000 0 0 0 0 0 0 0 0 0 0 0 0 0
##$PACOIL= (0..32)
2 3 1 0 0 0 0 0 0 0 0 0 0 0 0 0 0 0 0 0 0 0 0 0 0 0 0 0 0 0 0 0 0
##$PAPS= 0
##$PARMODE= 0
##$PCPD= (0..9)
0 70 0 0 0 0 0 0 0 0
##$PEXSEL= (0..9)
1 1 1 1 1 1 1 1 1 1
##$PHCOR= (0..31)
0 0 0 0 0 0 0 0 0 0 0 0 0 0 0 0 0 0 0 0 0 0 0 0 0 0 0 0 0 0 0 0
##$PHLIST= <>
##$PH_ref= 0
##$PL= (0..63)
120 120 120 120 120 120 120 120 120 120 120 120 120 120 120 120 120 120
120 120 120 120 120 120 120 120 120 120 120 120 120 120 120 120 120 120
120 120 120 120 120 120 120 120 120 120 120 120 120 120 120 120 120 120
120 120 120 120 120 120 120 120 120 120
##$PLSTEP= 0.1
##$PLSTRT= -6
##$PLW= (0..63)
0 29.992 0 0 0 0 0 0 0 0.00012906 5.1623 0.39833 0 0 0 0 0 0 29.992 0.65846
0 0 0 0 0 0 0 0.39833 0 5.1623 0 0 5.1623e-06 0 0 0 0 0 0 0 0 0 0 0 0 0
0 0 0 0 0 0 0 0 0 0 0 0 0 0 0 0 0 0
##$PLWMAX= (0..7)
89.67 0 0 0 0 0 0 0
##$PQPHASE= 0
##$PQSCALE= 1
##$PR= 1
##$PRECHAN= (0..32)
-1 2 -1 0 -1 1 -1 -1 -1 -1 -1 -1 -1 -1 -1 -1 -1 -1 -1 -1 -1 -1 -1 -1 -1
-1 -1 -1 -1 -1 -1 -1 -1
##$PROBHD= <Z114607_0100 (PA BBO 600S3 BBF-H-D-05 Z SP)>
##$PROBINPUTS= (0..15)
<19F-109Ag> <1H> <2H> <> <> <> <> <> <> <> <> <> <> <> <> <>
##$PULPROG= <zg30>
##$PW= 0
##$PYNM= <>
##$ProjAngle= 0
##$QNP= 0
##$RECCHAN= (0..9)
0 2 0 0 0 0 0 0 0 0
##$RECPH= 0
##$RECPRE= (0..24)
-1 0 -1 -1 -1 -1 -1 -1 -1 -1 -1 -1 -1 -1 -1 -1 -1 -1 -1 -1 -1 -1 -1 -1
-1
##$RECPRFX= (0..32)
1 0 0 0 0 0 0 0 0 0 0 0 0 0 0 0 -1 -1 -1 -1 -1 -1 -1 -1 -1 -1 -1 -1 -1
-1 -1 -1 -1
##$RG= 64
##$RO= 0
##$RSEL= (0..24)
0 0 2 0 0 0 0 0 0 0 0 0 0 0 0 0 0 0 0 0 0 0 0 0 0
##$SAMPLEID= <>
##$SFO1= 600.1337058
##$SFO2= 600.1337058
##$SFO3= 600.1337058
##$SFO4= 600.1337058
##$SFO5= 600.1337058
##$SFO6= 600.1337058
##$SFO7= 600.1337058
##$SFO8= 600.1337058
##$SOLVENT= <CDCl3>
##$SOLVOLD= <off>
##$SP= (0..63)
120 120 120 120 120 120 120 120 120 120 120 120 120 120 120 120 120 120
120 120 120 120 120 120 120 120 120 120 120 120 120 120 120 120 120 120
120 120 120 120 120 120 120 120 120 120 120 120 120 120 120 120 120 120
120 120 120 120 120 120 120 120 120 120
##$SPECTR= 0
##$SPINCNT= 0
##$SPNAM= (0..63)
<> <Gaus1_270.1000> <Gaus1_180r.1000> <> <> <Squa100.1000> <Squa100.1000>
<> <Squa100.1000> <> <Squa100.1000> <Squa100.1000> <> <> <> <> <> <> <>
<Sinc1.1000> <Sinc1.1000> <Sinc1.1000> <Sinc1.1000> <> <> <> <> <> <> <Crp60,20,20.10>
<Bip720,50,20.1> <> <> <> <Rsnob.1000> <Gaus1_180r.1000> <Gaus1_180r.1000>
<> <> <> <Gaus1_180r.1000> <Squa100.1000> <> <> <> <> <> <> <> <> <> <>
<> <> <> <> <> <> <> <> <> <> <> <>
##$SPOAL= (0..63)
0.5 1 0.5 0.5 0.5 0.5 0.5 0.5 0.5 0.5 0.5 0.5 0.5 0.5 0.5 0.5 0.5 0.5 0.5
1 1 1 1 0.5 0.5 0.5 0.5 0.5 0.5 0.5 0.5 0.5 0.5 0.5 0.5 0.5 0.5 0.5 0.5
0.5 0.5 0.5 0.5 0.5 0.5 0.5 0.5 0.5 0.5 0.5 0.5 0.5 0.5 0.5 0.5 0.5 0.5
0.5 0.5 0.5 0.5 0.5 0.5 0.5
##$SPOFFS= (0..63)
0 0 0 0 0 0 0 0 0 0 0 0 0 0 0 0 0 0 0 0 0 0 0 0 0 0 0 0 0 0 0 0 0 0 0 0
0 0 0 0 0 0 0 0 0 0 0 0 0 0 0 0 0 0 0 0 0 0 0 0 0 0 0 0
##$SPPEX= (0..63)
0 0 0 0 0 0 0 0 0 0 0 0 0 0 0 0 0 0 0 0 0 0 0 0 0 0 0 0 0 0 0 0 0 0 0 0
0 0 0 0 0 0 0 0 0 0 0 0 0 0 0 0 0 0 0 0 0 0 0 0 0 0 0 0
##$SPW= (0..63)
0 2.6785e-05 1.1904e-05 0 0 0.0032265 0.00012906 0 3.2265e-07 0 0.0032265
0.0032265 0 0 0 0 0 0 0 1.90026e-05 2.953893e-05 1.379259e-05 7.438228e-05
0 0 0 0 0 0 0.12324 5.1623 0 0 0 0.00013014 1.1904e-05 0.00076187 0 0 0
1.1904e-05 3.2265e-07 0 0 0 0 0 0 0 0 0 0 0 0 0 0 0 0 0 0 0 0 0 0
##$SUBNAM= (0..9)
<> <> <> <> <> <> <> <> <> <>
##$SW= 20.0275882741975
##$SWIBOX= (0..32)
0 0 3 0 0 0 0 0 0 0 0 0 0 0 0 0 0 0 0 0 0 0 0 0 0 0 0 0 0 0 0 0 0
##$SW_h= 12019.2307692308
##$SWfinal= 0
##$SigLockShift= 0
##$TD= 65536
##$TD0= 1
##$TD_INDIRECT= (0..7)
0 0 0 0 0 0 0 0
##$TDav= 1
##$TE= 298.0019
##$TE1= 298.0019
##$TE2= 0
##$TE3= 0
##$TE4= 0
##$TEG= 300
##$TE_MAGNET= 0
##$TE_PIDX= 1
##$TE_RAW= 298.0019
##$TE_STAB= (0..9)
1 1 0 0 0 0 0 0 0 0
##$TOTROT= (0..63)
0 0 0 0 0 0 0 0 0 0 0 0 0 0 0 0 0 0 0 0 0 0 0 0 0 0 0 0 0 0 0 0 0 0 0 0
0 0 0 0 0 0 0 0 0 0 0 0 0 0 0 0 0 0 0 0 0 0 0 0 0 0 0 0
##$TUBE_TYPE= <>
##$USERA1= <>
##$USERA10= <>
##$USERA2= <>
##$USERA3= <>
##$USERA4= <>
##$USERA5= <>
##$USERA6= <>
##$USERA7= <>
##$USERA8= <>
##$USERA9= <>
##$UUID= <776abec0-9522-11ef-b82e-3417eba89713>
##$VALIDCODE= -1
##$VALIST= <>
##$VCLIST= <>
##$VDLIST= <>
##$VPLIST= <>
##$VTLIST= <>
##$WAVEMAKER= (0..7)
<> <> <> <> <> <> <> <>
##$WBST= 1024
##$WBSW= (0..7)
4 10 10 10 10 10 10 10
##$XL= 0
##$YL= 0
##$YMAX_a= 4525879
##$YMIN_a= -4005823
##$ZGOPTNS= <>
##$scaledByNS= no
##$scaledByRG= no
##$shimCoilTempK= 300
##$ABSF1= 0
##$ABSF2= 0
##$ABSG= 0
##$ABSL= 0
##$ALPHA= 0
##$AQORDER= 0
##$ASSFAC= 0
##$ASSFACI= 0
##$ASSFACX= 0
##$ASSWID= 0
##$AUNMP= <proc_1d>
##$AXLEFT= 0
##$AXNAME= <>
##$AXNUC= <1H>
##$AXRIGHT= 0
##$AXTYPE= 0
##$AXUNIT= <>
##$AZFE= 0.1
##$AZFW= 0.1
##$BCFW= 0
##$BC_mod= 0
##$BYTORDP= 0
##$COROFFS= 0
##$CY= 15
##$DATMOD= 1
##$DC= 0
##$DFILT= <>
##$DTYPP= 0
##$ERETIC= no
##$F1P= 0
##$F2P= 0
##$FCOR= 1
##$FTSIZE= 65536
##$FT_mod= 6
##$GAMMA= 0
##$GB= 0
##$INTBC= 1
##$INTSCL= 2.15180649268829e-10
##$ISEN= 128
##$LB= 0.3
##$LEV0= 0
##$LPBIN= 0
##$MAXI= 10000
##$MC2= 0
##$MEAN= 0
##$ME_mod= 0
##$MI= 0.1
##$MddCEXP= no
##$MddCT_SP= no
##$MddF180= no
##$MddLAMBDA= 0
##$MddMEMORY= 0
##$MddMERGE= 0
##$MddNCOMP= 0
##$MddNITER= 0
##$MddNOISE= 0
##$MddPHASE= 0
##$MddSEED= 0
##$MddSRSIZE= 0
##$Mdd_CsALG= 0
##$Mdd_CsLAMBDA= 0
##$Mdd_CsNITER= 0
##$Mdd_CsNORM= 0
##$Mdd_CsVE= no
##$Mdd_CsZF= 0
##$Mdd_LrLAMBDA= 0
##$Mdd_LrNITER= 0
##$Mdd_LrRANK= 0
##$Mdd_LrZF= 0
##$Mdd_mod= 0
##$NCOEF= 0
##$NC_proc= -4
##$NLEV= 6
##$NOISF1= 0
##$NOISF2= 0
##$NSP= 0
##$NTH_PI= 0
##$NZP= 0
##$OFFSET= 16.18152
##$PC= 1
##$PHC0= 80.76114
##$PHC1= -3.4
##$PH_mod= 1
##$PKNL= yes
##$PPARMOD= 0
##$PPDIAG= 0
##$PPIPTYP= 0
##$PPMPNUM= 2147483647
##$PPRESOL= 1
##$PSCAL= 0
##$PSIGN= 0
##$PYNMP= <>
##$RDF1= 0
##$RDF2= 0
##$RDFWHM= 0
##$RDINT= 0
##$RDPOS= 0
##$REVERSE= no
##$SF= 600.130004400583
##$SI= 65536
##$SIGF1= 0
##$SIGF2= 0
##$SINO= 0
##$SIOLD= 65536
##$SPECTYP= <PROTON>
##$SREF_mod= 1
##$SREGLST= <1H.CDCl3>
##$SSB= 0
##$STSI= 65536
##$STSR= 0
##$SW_p= 12019.2307692308
##$SYMM= 0
##$S_DEV= 0
##$TDeff= 65536
##$TDoff= 0
##$TI= <>
##$TILT= no
##$TM1= 0
##$TM2= 0
##$TOPLEV= 0
##$USERP1= <>
##$USERP10= <>
##$USERP2= <>
##$USERP3= <>
##$USERP4= <>
##$USERP5= <>
##$USERP6= <>
##$USERP7= <>
##$USERP8= <>
##$USERP9= <>
##$WDW= 1
##$XDIM= 65536
##$YMAX_p= 448545352
##$YMIN_p= 79403
##$CURPLOT= <>
##$CURPRIN= <$>
##$DFORMAT= <normdp>
##$LAYOUT= <+/1D_H.xwp>
##$LFORMAT= <normlp>
##$PFORMAT= <normpl>
$$ End of Bruker specific parameters
$$ ---------------------------------
##XUNITS= HZ
##YUNITS= ARBITRARY UNITS
##XFACTOR= 0.183398907001202
##YFACTOR= 1
##DELTAX= -0.183398907001202
##NPOINTS= 65536
##FIRSTX= 12019.0473703238
##FIRSTY= 120656
##LASTX= 0
##MAXY= 448545352
##MINY= 79403
##XYDATA= (X++(Y..Y))
65535 120656
65534 121893
65533 122922
65532 119075
65531 118647
65530 120247
65529 121301
65528 123207
65527 125875
65526 128626
65525 132822
65524 132338
65523 129373
65522 129943
65521 129774
65520 128288
65519 129100
65518 132284
65517 128996
65516 123540
65515 120164
65514 116482
65513 120811
65512 127752
65511 124955
65510 122083
65509 120983
65508 124441
65507 128244
65506 123886
65505 121012
65504 125366
65503 123835
65502 124404
65501 127300
65500 123601
65499 121810
65498 122736
65497 120885
65496 119820
65495 119723
65494 121623
65493 121515
65492 119891
65491 118950
65490 120402
65489 120325
65488 122926
65487 124037
65486 118845
65485 117414
65484 123075
65483 121819
65482 122848
65481 120339
65480 121772
65479 125773
65478 124684
65477 122688
65476 122326
65475 125799
65474 125367
65473 128028
65472 124988
65471 125149
65470 126042
65469 124477
65468 124916
65467 121067
65466 119349
65465 120510
65464 119043
65463 119932
65462 120264
65461 120154
65460 122430
65459 125301
65458 122318
65457 119821
65456 122613
65455 121095
65454 119568
65453 118353
65452 113826
65451 115140
65450 121237
65449 121232
65448 116562
65447 119774
65446 119856
65445 121595
65444 122639
65443 124096
65442 126348
65441 121475
65440 115389
65439 121921
65438 124556
65437 123675
65436 119544
65435 120139
65434 121663
65433 124103
65432 124846
65431 125170
65430 124538
65429 116767
65428 117398
65427 114617
65426 116238
65425 122596
65424 118401
65423 118373
65422 118091
65421 117455
65420 119766
65419 119368
65418 116067
65417 112661
65416 111903
65415 114467
65414 114073
65413 115232
65412 119507
65411 124988
65410 125409
65409 120277
65408 118930
65407 118564
65406 119370
65405 118760
65404 122320
65403 124869
65402 122516
65401 120456
65400 116242
65399 117347
65398 121778
65397 127892
65396 128390
65395 121402
65394 113332
65393 112325
65392 112232
65391 117464
65390 119519
65389 118318
65388 114338
65387 112335
65386 112920
65385 116358
65384 119698
65383 122132
65382 122451
65381 121380
65380 116676
65379 116955
65378 116951
65377 115621
65376 115595
65375 114607
65374 113947
65373 113773
65372 115496
65371 115244
65370 114763
65369 112021
65368 113383
65367 119362
65366 117292
65365 116939
65364 116564
65363 115988
65362 116561
65361 118995
65360 120414
65359 115555
65358 112700
65357 116076
65356 115689
65355 116348
65354 118895
65353 117480
65352 112113
65351 113000
65350 118073
65349 114482
65348 113299
65347 114773
65346 116048
65345 116651
65344 113027
65343 115634
65342 118019
65341 114120
65340 113023
65339 117913
65338 114991
65337 114271
65336 112180
65335 111517
65334 113828
65333 113852
65332 115720
65331 114200
65330 115145
65329 111344
65328 111423
65327 117229
65326 112165
65325 107155
65324 112828
65323 111357
65322 110728
65321 112787
65320 111862
65319 107998
65318 106905
65317 113325
65316 117586
65315 117721
65314 115998
65313 113129
65312 111245
65311 109944
65310 115223
65309 112673
65308 113246
65307 116274
65306 118025
65305 114415
65304 108860
65303 105384
65302 110238
65301 110764
65300 111614
65299 115193
65298 116044
65297 116874
65296 118406
65295 124635
65294 121055
65293 121570
65292 120273
65291 119859
65290 120927
65289 114939
65288 115153
65287 114359
65286 114547
65285 117050
65284 119727
65283 120811
65282 114682
65281 113987
65280 116099
65279 110342
65278 108684
65277 110721
65276 118124
65275 119345
65274 115919
65273 115717
65272 121996
65271 116312
65270 112163
65269 107196
65268 107872
65267 107707
65266 108426
65265 110624
65264 112053
65263 109407
65262 105777
65261 102955
65260 101752
65259 104443
65258 106611
65257 107707
65256 111150
65255 111194
65254 114657
65253 113534
65252 115156
65251 113472
65250 106293
65249 108340
65248 114134
65247 111561
65246 107244
65245 107934
65244 110563
65243 111478
65242 110255
65241 102508
65240 100558
65239 103115
65238 102788
65237 105078
65236 108656
65235 109648
65234 108509
65233 101988
65232 102561
65231 107760
65230 109366
65229 103686
65228 100748
65227 108657
65226 113685
65225 118153
65224 113880
65223 108374
65222 110764
65221 117475
65220 115051
65219 111865
65218 110990
65217 110835
65216 109549
65215 109003
65214 107034
65213 103191
65212 104878
65211 105208
65210 103147
65209 105469
65208 106855
65207 108652
65206 105973
65205 107686
65204 106828
65203 110999
65202 112889
65201 111967
65200 109468
65199 109817
65198 107436
65197 106993
65196 102992
65195 100786
65194 107473
65193 109328
65192 109304
65191 108730
65190 105199
65189 109425
65188 118263
65187 117277
65186 112751
65185 110742
65184 107179
65183 105018
65182 114217
65181 113689
65180 108831
65179 109672
65178 106212
65177 107081
65176 108879
65175 110234
65174 106432
65173 102190
65172 104077
65171 108345
65170 107368
65169 105958
65168 103998
65167 108470
65166 113493
65165 111702
65164 117297
65163 121354
65162 117547
65161 107987
65160 106766
65159 114757
65158 112339
65157 111811
65156 112225
65155 115785
65154 123075
65153 122371
65152 119626
65151 112012
65150 109664
65149 109819
65148 107720
65147 109367
65146 110181
65145 108496
65144 104233
65143 106167
65142 114371
65141 113231
65140 115507
65139 111910
65138 103752
65137 107664
65136 106787
65135 100707
65134 100422
65133 104635
65132 106318
65131 102838
65130 104104
65129 103511
65128 101127
65127 102463
65126 106060
65125 100716
65124 99966
65123 102584
65122 102792
65121 96782
65120 101167
65119 101411
65118 101041
65117 100453
65116 97545
65115 100136
65114 110555
65113 105522
65112 99728
65111 104433
65110 108811
65109 103813
65108 98512
65107 97919
65106 99715
65105 102589
65104 103116
65103 100565
65102 100053
65101 98134
65100 104505
65099 109248
65098 108624
65097 104883
65096 96432
65095 94699
65094 101555
65093 108744
65092 105311
65091 101578
65090 105944
65089 110453
65088 110933
65087 104404
65086 107139
65085 102921
65084 98172
65083 95061
65082 92942
65081 97482
65080 97070
65079 101194
65078 102437
65077 106188
65076 109225
65075 109068
65074 104428
65073 105743
65072 104145
65071 101906
65070 100349
65069 101251
65068 107754
65067 103478
65066 101164
65065 101432
65064 98578
65063 102142
65062 108507
65061 103702
65060 100916
65059 100863
65058 102207
65057 101679
65056 104342
65055 107497
65054 110332
65053 108838
65052 103798
65051 108653
65050 106845
65049 98048
65048 97371
65047 96241
65046 96488
65045 98047
65044 97518
65043 98529
65042 97628
65041 101956
65040 104547
65039 103169
65038 100446
65037 102245
65036 102629
65035 99665
65034 100393
65033 103006
65032 99890
65031 97375
65030 99865
65029 100354
65028 99370
65027 100701
65026 104359
65025 104554
65024 102705
65023 102213
65022 103420
65021 100724
65020 98411
65019 101438
65018 103019
65017 105182
65016 106370
65015 105333
65014 105858
65013 106190
65012 96181
65011 89716
65010 90385
65009 90398
65008 98813
65007 103309
65006 104595
65005 104248
65004 102724
65003 99368
65002 99283
65001 98799
65000 97970
64999 98706
64998 99543
64997 101670
64996 101466
64995 103287
64994 102291
64993 103007
64992 106575
64991 95076
64990 88090
64989 98213
64988 106840
64987 108635
64986 109150
64985 109515
64984 108938
64983 103000
64982 91110
64981 87997
64980 89428
64979 97190
64978 108303
64977 106495
64976 102586
64975 103656
64974 104833
64973 103358
64972 101888
64971 107530
64970 115126
64969 106077
64968 101780
64967 103280
64966 105197
64965 105192
64964 109448
64963 104038
64962 97325
64961 93801
64960 96544
64959 98283
64958 93087
64957 96212
64956 97254
[...]
1795 112193
1794 108808
1793 105963
1792 104394
1791 97821
1790 92724
1789 97235
1788 102069
1787 101198
1786 101177
1785 105435
1784 103724
1783 104733
1782 107863
1781 110507
1780 109173
1779 103678
1778 101343
1777 104870
1776 104344
1775 100006
1774 102822
1773 104323
1772 103351
1771 98712
1770 101931
1769 106567
1768 105411
1767 105487
1766 103164
1765 104878
1764 103238
1763 106212
1762 106744
1761 105806
1760 103599
1759 102213
1758 103262
1757 103256
1756 101505
1755 99373
1754 102314
1753 99901
1752 98077
1751 97292
1750 96629
1749 98933
1748 100951
1747 101189
1746 102413
1745 103812
1744 104663
1743 98556
1742 109266
1741 110342
1740 115114
1739 113756
1738 108613
1737 108015
1736 111702
1735 107045
1734 104377
1733 99136
1732 101223
1731 107320
1730 109079
1729 108778
1728 116423
1727 119047
1726 111970
1725 114967
1724 117012
1723 116255
1722 117115
1721 115892
1720 111924
1719 110073
1718 111864
1717 107884
1716 112184
1715 112348
1714 106536
1713 106751
1712 106711
1711 109786
1710 107517
1709 112378
1708 113450
1707 115363
1706 112876
1705 112255
1704 112303
1703 108983
1702 107412
1701 104204
1700 102815
1699 111964
1698 108525
1697 105517
1696 98369
1695 92394
1694 97649
1693 104707
1692 105436
1691 98878
1690 102147
1689 103405
1688 102339
1687 103425
1686 111614
1685 115577
1684 109226
1683 111493
1682 115778
1681 115049
1680 110900
1679 107600
1678 113139
1677 113102
1676 111920
1675 109300
1674 108178
1673 114909
1672 107627
1671 101940
1670 102599
1669 109538
1668 109986
1667 103871
1666 101133
1665 100716
1664 102556
1663 103498
1662 107676
1661 104656
1660 97187
1659 99983
1658 99752
1657 101252
1656 110369
1655 112152
1654 108491
1653 108955
1652 114227
1651 111936
1650 108260
1649 108894
1648 110412
1647 108875
1646 107685
1645 111995
1644 112540
1643 110278
1642 105820
1641 104757
1640 103993
1639 99014
1638 103251
1637 104119
1636 107091
1635 106978
1634 107086
1633 111254
1632 110116
1631 112247
1630 111771
1629 107668
1628 103238
1627 105367
1626 111792
1625 103870
1624 93545
1623 94529
1622 92295
1621 98765
1620 107687
1619 107550
1618 106097
1617 111946
1616 110118
1615 101676
1614 100386
1613 107080
1612 107341
1611 109500
1610 107961
1609 109128
1608 102613
1607 99795
1606 103684
1605 104972
1604 100421
1603 99643
1602 105487
1601 102898
1600 102940
1599 105195
1598 107429
1597 102979
1596 96708
1595 93319
1594 103802
1593 111670
1592 113046
1591 110006
1590 113720
1589 107708
1588 101556
1587 95435
1586 96047
1585 97097
1584 97888
1583 96695
1582 93789
1581 95087
1580 103233
1579 104575
1578 103654
1577 101949
1576 98964
1575 97370
1574 101634
1573 109417
1572 110260
1571 105055
1570 110059
1569 113451
1568 110663
1567 105944
1566 104388
1565 106309
1564 107465
1563 113362
1562 111642
1561 106942
1560 106595
1559 107566
1558 109299
1557 110138
1556 117356
1555 109647
1554 106397
1553 103261
1552 103025
1551 105652
1550 106143
1549 104003
1548 103579
1547 108084
1546 106066
1545 96801
1544 99796
1543 95427
1542 90757
1541 91547
1540 96949
1539 97565
1538 97348
1537 91362
1536 93353
1535 97343
1534 99959
1533 104503
1532 106962
1531 106656
1530 105396
1529 109415
1528 109970
1527 115464
1526 107609
1525 100451
1524 101437
1523 97003
1522 102182
1521 103230
1520 98986
1519 101208
1518 109340
1517 105251
1516 101214
1515 97672
1514 91625
1513 89834
1512 92645
1511 97969
1510 93145
1509 89915
1508 91953
1507 99062
1506 100370
1505 97965
1504 99093
1503 102656
1502 104357
1501 103829
1500 104308
1499 96929
1498 101065
1497 103825
1496 105557
1495 97638
1494 96660
1493 106862
1492 106927
1491 99016
1490 104916
1489 107084
1488 106440
1487 112208
1486 112929
1485 111273
1484 112359
1483 112110
1482 107465
1481 104672
1480 111543
1479 113575
1478 114494
1477 110898
1476 113062
1475 115897
1474 113426
1473 124962
1472 123964
1471 115879
1470 109413
1469 114528
1468 121511
1467 115571
1466 104202
1465 96592
1464 100729
1463 103353
1462 102310
1461 104024
1460 104342
1459 104044
1458 110733
1457 113040
1456 107090
1455 108120
1454 106685
1453 106260
1452 107417
1451 112633
1450 109394
1449 103073
1448 100212
1447 106164
1446 106922
1445 99657
1444 100333
1443 111797
1442 106444
1441 100473
1440 102038
1439 104357
1438 106848
1437 111052
1436 112469
1435 109558
1434 104150
1433 102399
1432 105258
1431 102515
1430 105388
1429 108949
1428 110182
1427 106513
1426 104765
1425 109636
1424 113174
1423 111061
1422 112072
1421 109916
1420 107794
1419 105097
1418 98244
1417 95623
1416 96462
1415 106342
1414 102512
1413 96264
1412 100884
1411 102848
1410 98658
1409 97240
1408 100816
1407 100418
1406 96952
1405 94609
1404 99242
1403 104718
1402 105820
1401 106992
1400 103780
1399 103214
1398 98019
1397 102794
1396 105785
1395 109818
1394 111428
1393 109783
1392 107018
1391 111399
1390 115467
1389 108134
1388 104521
1387 102450
1386 101609
1385 101798
1384 100126
1383 102647
1382 100932
1381 105842
1380 108873
1379 114882
1378 117076
1377 116689
1376 112838
1375 107448
1374 103510
1373 105407
1372 114686
1371 118688
1370 116540
1369 113327
1368 100310
1367 97099
1366 101564
1365 100519
1364 102019
1363 97146
1362 92471
1361 97198
1360 100796
1359 100180
1358 96419
1357 99636
1356 96464
1355 97707
1354 104046
1353 97042
1352 94590
1351 97527
1350 101650
1349 103715
1348 106687
1347 106865
1346 106427
1345 106676
1344 103213
1343 101314
1342 109617
1341 108090
1340 108612
1339 115055
1338 118298
1337 116471
1336 115454
1335 115210
1334 117608
1333 113003
1332 101645
1331 106798
1330 110823
1329 103763
1328 96991
1327 96026
1326 97665
1325 98688
1324 95216
1323 94749
1322 97366
1321 99669
1320 101062
1319 110893
1318 109701
1317 103352
1316 104381
1315 106824
1314 103429
1313 100536
1312 101609
1311 104528
1310 107818
1309 114292
1308 110522
1307 107854
1306 112609
1305 109876
1304 101196
1303 100963
1302 100312
1301 95300
1300 96153
1299 98717
1298 106746
1297 111378
1296 106439
1295 95913
1294 89574
1293 93890
1292 99610
1291 97546
1290 101055
1289 105737
1288 109823
1287 106724
1286 101963
1285 98894
1284 106420
1283 113660
1282 119804
1281 117225
1280 114903
1279 113427
1278 107283
1277 101017
1276 98781
1275 102877
1274 103096
1273 98582
1272 90953
1271 91756
1270 99838
1269 106424
1268 98007
1267 92275
1266 91183
1265 91307
1264 102150
1263 110793
1262 106293
1261 104096
1260 108099
1259 109177
1258 109203
1257 109973
1256 112687
1255 105552
1254 105535
1253 102477
1252 98788
1251 98963
1250 105385
1249 111663
1248 105721
1247 100255
1246 99863
1245 106952
1244 104084
1243 92335
1242 90094
1241 97035
1240 101173
1239 102360
1238 99374
1237 101621
1236 102294
1235 101918
1234 98178
1233 96272
1232 101465
1231 107861
1230 110021
1229 109501
1228 104409
1227 103075
1226 103282
1225 108582
1224 112852
1223 106023
1222 99175
1221 102163
1220 94688
1219 93480
1218 101109
1217 98205
1216 99021
1215 102661
1214 101205
1213 106617
1212 107778
1211 98998
1210 90116
1209 94862
1208 100835
1207 106432
1206 116738
1205 114548
1204 110701
1203 107087
1202 97450
1201 93873
1200 101473
1199 108349
1198 107295
1197 102951
1196 97228
1195 99871
1194 100809
1193 99781
1192 102311
1191 104575
1190 99679
1189 97120
1188 107635
1187 113381
1186 111259
1185 112624
1184 112589
1183 108868
1182 109041
1181 105756
1180 107786
1179 108163
1178 103237
1177 102300
1176 105077
1175 106492
1174 105665
1173 107565
1172 116005
1171 117433
1170 116130
1169 110350
1168 108284
1167 112342
1166 108559
1165 105536
1164 103061
1163 104839
1162 98387
1161 99114
1160 104217
1159 104958
1158 103205
1157 94943
1156 101265
1155 105816
1154 106291
1153 103443
1152 102757
1151 98149
1150 100092
1149 106083
1148 104551
1147 104092
1146 110388
1145 106430
1144 98656
1143 100599
1142 91838
1141 97468
1140 109119
1139 113457
1138 117327
1137 117301
1136 115250
1135 106481
1134 101725
1133 99835
1132 98307
1131 102549
1130 111480
1129 111392
1128 109242
1127 99970
1126 100912
1125 102362
1124 98523
1123 94253
1122 90361
1121 94349
1120 98132
1119 97437
1118 98679
1117 97490
1116 93555
1115 95342
1114 92402
1113 93088
1112 94554
1111 100969
1110 107695
1109 112495
1108 108411
1107 100995
1106 99266
1105 104482
1104 102827
1103 101583
1102 107083
1101 103108
1100 106269
1099 105524
1098 109502
1097 113387
1096 113270
1095 104882
1094 106149
1093 108112
1092 107228
1091 107955
1090 109909
1089 106809
1088 105723
1087 113043
1086 107975
1085 102258
1084 103150
1083 105953
1082 104262
1081 109748
1080 111844
1079 106039
1078 101007
1077 102677
1076 99746
1075 104106
1074 107559
1073 100085
1072 100871
1071 105343
1070 106110
1069 107980
1068 110173
1067 109414
1066 106137
1065 102484
1064 106607
1063 109011
1062 107737
1061 104572
1060 102698
1059 103428
1058 106483
1057 97893
1056 91374
1055 94964
1054 96856
1053 98200
1052 101519
1051 103016
1050 107995
1049 99468
1048 94037
1047 98882
1046 108431
1045 108759
1044 104976
1043 106356
1042 107749
1041 101249
1040 98175
1039 98816
1038 95140
1037 95687
1036 95577
1035 101320
1034 104997
1033 102123
1032 101250
1031 102256
1030 101969
1029 97837
1028 93124
1027 98128
1026 97862
1025 104758
1024 105855
1023 102857
1022 108670
1021 117548
1020 111834
1019 109747
1018 111184
1017 108143
1016 104895
1015 99830
1014 96145
1013 90726
1012 95966
1011 100877
1010 103047
1009 100469
1008 101974
1007 104209
1006 104672
1005 105251
1004 102920
1003 105768
1002 99818
1001 97579
1000 97127
999 103204
998 106485
997 103842
996 105754
995 105102
994 100489
993 103935
992 103907
991 103760
990 110441
989 112578
988 108126
987 101665
986 100535
985 103551
984 107082
983 105249
982 106106
981 106028
980 101531
979 97158
978 103882
977 110768
976 111430
975 112712
974 112633
973 110192
972 106089
971 104880
970 107774
969 105549
968 103947
967 102372
966 102031
965 100999
964 101575
963 107054
962 110143
961 105459
960 105690
959 102472
958 104386
957 102519
956 98110
955 101587
954 97375
953 93041
952 97979
951 108062
950 109496
949 108052
948 104838
947 110109
946 109636
945 108553
944 106446
943 105562
942 114027
941 111540
940 112813
939 110369
938 107347
937 105809
936 112487
935 113887
934 107033
933 105378
932 103176
931 104584
930 106865
929 106692
928 104823
927 107437
926 104307
925 101823
924 99563
923 97012
922 101145
921 99987
920 101734
919 104414
918 103914
917 104367
916 99834
915 103055
914 108867
913 107498
912 110628
911 111156
910 101990
909 94838
908 100541
907 100487
906 96282
905 96596
904 103550
903 105408
902 100774
901 98399
900 93877
899 98130
898 98397
897 95147
896 95476
895 88646
894 88615
893 94703
892 100605
891 107622
890 104746
889 97866
888 98974
887 101380
886 101610
885 104474
884 106661
883 102723
882 100507
881 100805
880 101339
879 99196
878 93614
877 86936
876 81989
875 86491
874 93968
873 100410
872 100104
871 97677
870 96258
869 95012
868 108527
867 106361
866 102038
865 100382
864 107007
863 106596
862 102709
861 98366
860 91033
859 86847
858 85569
857 89468
856 96450
855 101226
854 96536
853 100345
852 95104
851 90952
850 98591
849 104036
848 103021
847 98480
846 102308
845 102564
844 101620
843 99336
842 99242
841 101802
840 98064
839 104798
838 107854
837 106939
836 106011
835 107773
834 105600
833 102182
832 105413
831 102767
830 104352
829 110127
828 108589
827 106630
826 104315
825 106294
824 102087
823 102429
822 102791
821 102832
820 107876
819 112608
818 113060
817 112092
816 107012
815 109366
814 108331
813 103302
812 99408
811 98411
810 97405
809 101587
808 104862
807 108226
806 109531
805 107796
804 105806
803 111414
802 108980
801 104412
800 100536
799 99844
798 96951
797 99565
796 100576
795 101838
794 106297
793 107512
792 106526
791 107512
790 106662
789 104019
788 97900
787 97689
786 107651
785 108295
784 109386
783 104681
782 107956
781 108601
780 102160
779 100389
778 105054
777 106321
776 101180
775 93376
774 91113
773 97779
772 99381
771 97033
770 93476
769 96809
768 98855
767 99390
766 92252
765 92078
764 96090
763 99443
762 103062
761 110888
760 110404
759 104813
758 104002
757 104921
756 98102
755 89647
754 94193
753 97107
752 99134
751 96853
750 98007
749 102348
748 105520
747 103409
746 103830
745 109763
744 106831
743 110698
742 107883
741 108505
740 105879
739 98743
738 94621
737 96894
736 102238
735 107420
734 107908
733 99762
732 96754
731 97842
730 98431
729 94358
728 99506
727 102393
726 97676
725 95188
724 93419
723 93164
722 95899
721 96394
720 99844
719 95580
718 92201
717 94285
716 96201
715 105643
714 110512
713 111458
712 112769
711 110493
710 104880
709 103651
708 99527
707 94610
706 92018
705 93599
704 97702
703 96771
702 94788
701 95979
700 91235
699 88946
698 92255
697 98409
696 96097
695 93906
694 95242
693 98857
692 99106
691 96965
690 108238
689 105957
688 100099
687 95934
686 103474
685 105940
684 100444
683 100765
682 101486
681 103716
680 110758
679 110150
678 106829
677 109919
676 105520
675 98067
674 100491
673 101111
672 98768
671 94076
670 95233
669 97135
668 97488
667 98337
666 99084
665 103072
664 106863
663 103146
662 103099
661 102648
660 94208
659 87970
658 90808
657 97311
656 99642
655 102297
654 106046
653 105706
652 101016
651 92416
650 92740
649 97054
648 97648
647 98835
646 103123
645 104649
644 100312
643 99443
642 99312
641 96360
640 102119
639 111799
638 113346
637 107917
636 102786
635 101592
634 103614
633 104247
632 105248
631 105142
630 100972
629 95277
628 88748
627 89379
626 96274
625 98071
624 99692
623 99187
622 102552
621 104216
620 95285
619 90264
618 97266
617 106394
616 97501
615 90866
614 91725
613 95499
612 98551
611 103765
610 108902
609 102414
608 98743
607 98086
606 96532
605 97631
604 105287
603 104101
602 100155
601 106769
600 110230
599 108938
598 111372
597 113316
596 107437
595 102827
594 99752
593 96814
592 98028
591 101755
590 101734
589 98428
588 99103
587 110210
586 115351
585 111931
584 104583
583 99300
582 99825
581 104147
580 102421
579 98491
578 106065
577 104354
576 96615
575 90431
574 97502
573 105611
572 108128
571 108934
570 106973
569 103587
568 102449
567 103174
566 100295
565 101212
564 93963
563 97893
562 100008
561 100756
560 96593
559 92453
558 94236
557 93739
556 100654
555 102983
554 104304
553 102349
552 100571
551 100357
550 103425
549 108833
548 104255
547 108751
546 109004
545 104924
544 102079
543 98078
542 103547
541 107366
540 108150
539 105634
538 106004
537 105835
536 104296
535 108630
534 108115
533 104484
532 100067
531 98186
530 95038
529 99027
528 99347
527 100585
526 103738
525 103511
524 103168
523 101112
522 100467
521 107436
520 114960
519 111885
518 103527
517 98837
516 98681
515 97339
514 99307
513 106365
512 107012
511 105043
510 107735
509 105203
508 106125
507 111752
506 114386
505 101522
504 99930
503 104024
502 104508
501 109767
500 113534
499 109549
498 97598
497 98945
496 109661
495 107519
494 104654
493 98868
492 97261
491 101076
490 103263
489 105639
488 105148
487 105055
486 103257
485 104925
484 104939
483 103857
482 98908
481 102270
480 102900
479 103711
478 102282
477 101343
476 102911
475 101062
474 103479
473 107488
472 107342
471 101921
470 107908
469 111391
468 104957
467 101448
466 104425
465 103116
464 105357
463 106441
462 105190
461 101553
460 101936
459 104232
458 100445
457 94068
456 96966
455 91379
454 92810
453 95612
452 95761
451 99418
450 104128
449 106959
448 109317
447 110470
446 107494
445 104416
444 104463
443 98807
442 98966
441 99241
440 100421
439 103519
438 104470
437 102320
436 100583
435 104656
434 109330
433 104065
432 99065
431 99459
430 100624
429 100402
428 104518
427 103034
426 105527
425 103626
424 102292
423 99044
422 95732
421 101290
420 105738
419 99983
418 99374
417 98608
416 96722
415 92448
414 94258
413 96397
412 97101
411 100892
410 103529
409 101952
408 103814
407 104734
406 102214
405 103893
404 106995
403 111508
402 115482
401 109094
400 101603
399 98391
398 99451
397 102036
396 102680
395 100753
394 98402
393 102357
392 108714
391 105163
390 105663
389 109348
388 110373
387 109883
386 107567
385 106540
384 102855
383 104756
382 105930
381 103731
380 104735
379 99543
378 96489
377 101579
376 104177
375 111323
374 109911
373 107358
372 102575
371 102616
370 107694
369 110431
368 109885
367 103928
366 101513
365 105703
364 99749
363 101831
362 104894
361 99142
360 97454
359 98431
358 97517
357 98095
356 95220
355 94741
354 96712
353 99573
352 104413
351 106481
350 108320
349 111705
348 112133
347 104242
346 101532
345 104697
344 103270
343 104622
342 103211
341 109490
340 107653
339 100586
338 96971
337 101750
336 104963
335 103943
334 98648
333 94766
332 93293
331 92666
330 99616
329 104060
328 98370
327 97948
326 104382
325 109729
324 110087
323 108021
322 107223
321 108631
320 108114
319 102795
318 98005
317 103211
316 99665
315 94801
314 95855
313 103629
312 109901
311 107024
310 107437
309 106038
308 104917
307 104616
306 101879
305 102483
304 109645
303 112791
302 109675
301 107405
300 108903
299 107286
298 108561
297 108474
296 108729
295 108580
294 109555
293 109702
292 108365
291 107624
290 105605
289 105555
288 101371
287 102954
286 105063
285 104413
284 101962
283 103995
282 106206
281 107728
280 105405
279 102706
278 100804
277 97356
276 101008
275 107359
274 105601
273 106649
272 108406
271 110320
270 107868
269 104463
268 104597
267 105875
266 108182
265 108516
264 109629
263 102015
262 100928
261 106816
260 108210
259 104409
258 103521
257 103736
256 106368
255 107556
254 108260
253 108555
252 109842
251 104059
250 98339
249 96955
248 101470
247 101869
246 98406
245 94929
244 93758
243 94438
242 95118
241 96399
240 105934
239 105469
238 103885
237 106134
236 105028
235 100564
234 102693
233 108014
232 110235
231 111416
230 110176
229 110494
228 110812
227 112536
226 112185
225 111909
224 112005
223 110628
222 107939
221 105982
220 104651
219 107242
218 107646
217 107034
216 100617
215 96424
214 99133
213 110029
212 111773
211 108954
210 113816
209 108752
208 105224
207 102784
206 107059
205 109728
204 111647
203 113159
202 107275
201 102857
200 101747
199 104127
198 103139
197 99778
196 98716
195 102715
194 105086
193 105828
192 104468
191 104578
190 104840
189 109244
188 109422
187 106182
186 103309
185 103715
184 105363
183 108921
182 112186
181 110895
180 107855
179 106157
178 101122
177 97210
176 97429
175 99674
174 98799
173 104341
172 107591
171 107316
170 111256
169 114332
168 114018
167 119266
166 122752
165 116555
164 108663
163 110955
162 108079
161 103933
160 106775
159 111858
158 112252
157 113456
156 104056
155 101588
154 107494
153 104954
152 106312
151 107199
150 104564
149 99484
148 99498
147 99648
146 101267
145 102224
144 103527
143 106289
142 102066
141 99491
140 102738
139 106061
138 106929
137 102680
136 100653
135 105335
134 105918
133 100874
132 97485
131 96992
130 94467
129 96171
128 99375
127 98638
126 99523
125 99320
124 102461
123 109132
122 106285
121 103473
120 101351
119 101778
118 103794
117 101627
116 106053
115 106663
114 104482
113 105186
112 110035
111 110485
110 110354
109 109919
108 110402
107 107631
106 107652
105 108248
104 106546
103 104676
102 104520
101 106527
100 106372
99 103930
98 103039
97 103336
96 103458
95 102059
94 99833
93 100342
92 108783
91 114154
90 107622
89 106861
88 103935
87 102532
86 101564
85 101844
84 105606
83 107065
82 106130
81 110935
80 114073
79 109498
78 108796
77 102594
76 104055
75 107965
74 110261
73 112076
72 111217
71 112119
70 105817
69 102095
68 101251
67 100932
66 100384
65 101511
64 104474
63 107768
62 107994
61 103472
60 102932
59 104430
58 104078
57 106937
56 106198
55 108296
54 112964
53 112069
52 110875
51 109773
50 105946
49 104717
48 104197
47 112002
46 111226
45 105069
44 107582
43 109912
42 112114
41 112024
40 108007
39 106908
38 107754
37 107493
36 108360
35 108308
34 105910
33 100631
32 99538
31 99174
30 101682
29 104517
28 109482
27 109457
26 111846
25 107362
24 101263
23 103430
22 107589
21 106920
20 104201
19 104502
18 104889
17 106369
16 109749
15 107101
14 103406
13 104411
12 106331
11 108548
10 109145
9 109556
8 108007
7 108433
6 109944
5 115909
4 114316
3 109833
2 105503
1 103764
0 105307
##END=
