##TITLE=IOC-HACK-hunscha
2-Methylbut-1-en-3-in
HSQC.AUT CDCl3 {D:\Bruker\TopSpin} AVIII600 7
##JCAMPDX= 6.0         $$ Bruker NMR JCAMP-DX V2.0
##DATA TYPE= nD NMR SPECTRUM
##DATA CLASS= NTUPLES
##NUM DIM= 2
##ORIGIN= Bruker BioSpin GmbH
##OWNER= AVIII600
##LONG DATE= 2024/10/18 20:03:42+0000
$$ TopSpin 4.4.0
$$ 2025-01-17 18:03:17.369 +0100  Tobias@NMR09
$$ Compression mode = fixed
##.OBSERVE FREQUENCY= 600.131613355444
##.OBSERVE NUCLEUS= ^1H
##.ACQUISITION MODE= SIMULTANEOUS (DQD)
##.ACQUISITION SCHEME= Echo-Antiecho
##.AVERAGES= 4
##.DIGITISER RES= 22
##SPECTROMETER/DATA SYSTEM= spect
##.PULSE SEQUENCE= hsqcedetgpsp.3
##.SOLVENT NAME= CDCl3
##.SHIFT REFERENCE= INTERNAL, CDCl3, 1, 6.109316
##AUDIT TRAIL= $$ (NUMBER, WHEN, WHO, WHERE, PROCESS, VERSION, WHAT)
$$ ##TITLE= Audit trail, TopSpin 3.6.4
$$ ##JCAMPDX= 5.01
$$ ##ORIGIN= Bruker BioSpin GmbH
$$ ##OWNER= AVIII600
$$ $$ D:/Bruker/Topspin/data/AVIII600/nmr/20241018-AVIII600/244/pdata/1/auditp.txt
$$ ##AUDIT TRAIL=  $$ (NUMBER, WHEN, WHO, WHERE, PROCESS, VERSION, WHAT)
(   1,<2024-10-18 22:03:43.077 +0200>,<AVIII600>,<AV3600>,<go4>,<TopSpin 3.6.4>,
      <created by zg on data set with UUID '9b12216e-8d8a-11ef-a13f-3417eba89713'
       started at 2024-10-18 21:53:12.109 +0200,
       POWCHK enabled, PULCHK disabled,
       completed at 2024-10-18 22:03:43.062 +0200
$$ 
       configuration hash MD5:
       0D C6 C0 49 8D 99 C1 70 CD EB EC 3C 46 DE 0A 67
       data hash MD5: 1K * 128
       1C C9 76 C1 BE AA DF 97 56 39 EB 66 27 F4 3E 9B
>)
(   2,<2024-10-18 22:03:43.233 +0200>,<AVIII600>,<AV3600>,<audit>,<TopSpin 3.6.4>,
      <user comment:
       ICON-NMR User ID: AVIII600
       data hash MD5: 1K * 128
       1C C9 76 C1 BE AA DF 97 56 39 EB 66 27 F4 3E 9B>)
(   3,<2024-10-18 22:03:47.077 +0200>,<AVIII600>,<AV3600>,<proc2d>,<TopSpin 3.6.4>,
      <Start of raw data processing
       xfb same F2: SI = 1K WDW = 4 SSB = 2 FT_mod = 6 PKNL = 1 PHC0 = 132.2698 PHC1 = -2.356368 F1: SI = 256 ME_mod = 2 NCOEF = 32 WDW = 4 SSB = 2 FT_mod = 6 FCOR = 0.5 PHC0 = 0 PHC1 = 0
       data hash MD5: 1K * 256
       2F 6D FD 4B 1C 3F 95 99 2C 04 9D CB C2 EE 11 97>)
(   4,<2024-10-18 22:03:47.202 +0200>,<AVIII600>,<AV3600>,<proc2d>,<TopSpin 3.6.4>,
      <abs2 F2: ABSG = 5 ABSF1 = 6.109316 ABSF2 = -0.7762445
       data hash MD5: 1K * 256
       D0 98 E1 50 C3 E5 CF 53 1A 9D 61 75 B8 AA FC E2>)
(   5,<2024-10-18 22:03:47.343 +0200>,<AVIII600>,<AV3600>,<proc2d>,<TopSpin 3.6.4>,
      <abs1 F1: ABSG = 5 ABSF1 = 170.0409 ABSF2 = -10.0347
       data hash MD5: 1K * 256
       3B 7A 4D F6 33 AA 12 46 63 99 F1 74 70 BF 82 30>)
$$ $$ Z:/data/Datenbank/Erstellte Datenbank/2-Methylbut-1-en-3-in/244/pdata/1/auditp.txt
(   6,<2024-10-25T14:51:33.780+0200>,<Tobias>,<NMR09>,<proc2d>,<TopSpin 4.4.0>,
      <Start of raw data processing
       xfb F2: SI = 1K WDW = 4 SSB = 2 FT_mod = 6 PKNL = 1 PHC0 = 132.2698 PHC1 = -2.356368 F1: SI = 256 ME_mod = 2 NCOEF = 32 WDW = 4 SSB = 2 FT_mod = 6 FCOR = 0.5 PHC0 = 0 PHC1 = 0
       data hash MD5: 1K * 256
       2F 6D FD 4B 1C 3F 95 99 2C 04 9D CB C2 EE 11 97>)
(   7,<2024-10-25T14:51:37.829+0200>,<Tobias>,<NMR09>,<apkm>,<TopSpin 4.4.0>,
      <apkm
       data hash MD5: 1K * 256
       88 7F DE 17 3C 84 39 9C AA 2E 90 4D 71 2C 00 2B>)
(   8,<2024-10-25T14:51:39.032+0200>,<Tobias>,<NMR09>,<proc2d>,<TopSpin 4.4.0>,
      <abs1 F1: ABSG = 5 ABSF1 = 170.0409 ABSF2 = -10.0347
       data hash MD5: 1K * 256
       01 0C 1F 56 05 56 D7 2D CE BD E6 32 27 5E 96 C4>)
(   9,<2024-10-25T14:51:40.198+0200>,<Tobias>,<NMR09>,<proc2d>,<TopSpin 4.4.0>,
      <abs2 F2: ABSG = 5 ABSF1 = 6.109316 ABSF2 = -0.7762445
       data hash MD5: 1K * 256
       F8 5F AC D5 0F 05 56 57 ED 2C CA DF 4E 25 6A FC>)
$$ ##END=
$$ 
$$ $$ hash MD5
$$ $$ A7 21 89 78 79 AA C2 D2 A0 4D A2 6D 63 D3 43 A3
##$RELAX= 
##$BRUKER FILE EXP=cpdprg2
$$ #setphase
$$ bilev "l31=(nsdone+ds)%4+1"
$$ 1 p63*0.5:sp14:0 pl=sp14
$$   lo to 1 times l31
$$   p63:sp31:0 pl=sp31
$$ 2 p63:sp31:150
$$   p63:sp31:60
$$   p63:sp31:150
$$   p63:sp31:0
$$   p63:sp31:0 
$$   p63:sp31:150
$$   p63:sp31:60
$$   p63:sp31:150
$$   p63:sp31:0
$$   p63:sp31:180 
$$   p63:sp31:330
$$   p63:sp31:240
$$   p63:sp31:330
$$   p63:sp31:180
$$   p63:sp31:180 
$$   p63:sp31:330
$$   p63:sp31:240
$$   p63:sp31:330
$$   p63:sp31:180
$$   p63:sp31:0
$$   jump to 2
##$RELAX= 
##$BRUKER FILE EXP=format.temp
$$ EDIT_PAR COMMAND FILE
$$ 
$$ DI_MODE         LONG
$$ ED_ENTRY        ACQU
$$ ORDER           FILE
$$ 
$$ 
$$ HEADER		"F2 - Acquisition Parameters"
$$ T_NAME		Date_
$$ 		TYPE	R64
$$ 		CLASS	ACQU
$$ 		SUBRANGE 0.0 50000000
$$ 		REL	"Date_=itodate(DATE)"
$$ 		INV_REL	"DATE=datetoi(Date_,DATE)"
$$ 		FORMAT	"%14.0f"
$$ 		TEXT	" "
$$ END
$$ T_NAME		Time
$$ 		TYPE	R32
$$ 		CLASS	ACQU
$$ 		SUBRANGE 0.0 1000000
$$ 		REL	"Time=itotime(DATE)"
$$ 		INV_REL	"DATE=timetoi(Time,DATE)"
$$ 		FORMAT	"%14.2f h"
$$ 		TEXT	" "
$$ END
$$ NAME		INSTRUM
$$ 		TEXT	" "
$$ END
$$ NAME		PROBHD
$$ 		FORMAT	"%14.14s"
$$ 		TEXT	" "
$$ END
$$ NAME		PULPROG
$$ 		TEXT	" "
$$ END
$$ NAME		TD
$$ 		TEXT	" "
$$ END
$$ NAME		SOLVENT
$$ 		TEXT	" "
$$ END
$$ NAME		NS
$$ 		TEXT	" "
$$ END
$$ NAME		DS
$$ 		TEXT	" "
$$ END
$$ T_NAME		SWH
$$ 		TYPE	R32
$$ 		CLASS	ACQU
$$ 		SUBRANGE 0.0 1e8
$$ 		REL	"SWH=SW*SFO1"
$$ 		INV_REL "SW=SWH/SFO1"
$$ 		UNIT	"Hz"
$$ 		FORMAT	"%14.3f Hz"
$$ 		TEXT	" "
$$ END
$$ T_NAME          FIDRES
$$                 TYPE    R32
$$                 CLASS   ACQU
$$                 SUBRANGE 0.0 100000
$$                 REL     "FIDRES=2*SW*SFO1/TD"
$$                 INV_REL "TD = nextpow(2*SW*SFO1/FIDRES)"
$$ 		UNIT	"Hz"
$$ 		FORMAT	"%14.6f Hz"
$$ 		TEXT	" "
$$ END
$$ T_NAME          AQ
$$ 		TYPE	R32
$$ 		CLASS	ACQU
$$ 		SUBRANGE 0.0 1000
$$ 		REL	"AQ=aqcalc(SW,SFO1,TD,DIGTYP)"
$$ 		INV_REL	"TD=tdcalc(SW,SFO1,1.0e6*AQ,DIGTYP)"
$$ 		UNIT	"sec"
$$ 		FORMAT	"%14.7f sec"
$$ 		TEXT	" "
$$ END
$$ NAME		RG
$$ 		TEXT	" "
$$ END
$$ T_NAME          DW
$$ 		TYPE	R32
$$ 		CLASS	ACQU
$$ 		SUBRANGE 0.0 1000000
$$ 		REL	"DW=1/(2*SW*SFO1)"
$$ 		INV_REL	"SW=1000000/(2*(0.005+DW)*SFO1)"
$$ 		UNIT	"usec"
$$ 		FORMAT	"%14.3lf usec"
$$ 		TEXT	" "
$$ END
$$ NAME		DE
$$ 		FORMAT	"%14.2f usec"
$$ 		TEXT	" "
$$ END
$$ NAME		TE
$$ 		FORMAT	"%14.1f K"
$$ 		TEXT	" "
$$ END
$$ T_NAME		CNST2
$$ 		TYPE	R32
$$ 		CLASS	ACQU
$$ 		SUBRANGE -1e38 1e38
$$ 		REL	"CNST2=CNST[2]"
$$ 		INV_REL	"CNST[2]=CNST2"
$$ 		FORMAT	"%14.7f"
$$ 		TEXT	" "
$$ END
$$ T_NAME		D0
$$ 		TYPE	R32
$$ 		CLASS	ACQU
$$ 		SUBRANGE 0.0 1e38
$$ 		REL	"D0=D[0]"
$$ 		INV_REL	"D[0]=D0"
$$ 		UNIT	"sec"
$$ 		FORMAT	"%14.8f sec"
$$ 		TEXT	" "
$$ END
$$ T_NAME		D1
$$ 		TYPE	R32
$$ 		CLASS	ACQU
$$ 		SUBRANGE 0.0 1e38
$$ 		REL	"D1=D[1]"
$$ 		INV_REL	"D[1]=D1"
$$ 		UNIT	"sec"
$$ 		FORMAT	"%14.8f sec"
$$ 		TEXT	" "
$$ END
$$ T_NAME		D4
$$ 		TYPE	R32
$$ 		CLASS	ACQU
$$ 		SUBRANGE 0.0 1e38
$$ 		REL	"D4=D[4]"
$$ 		INV_REL	"D[4]=D4"
$$ 		UNIT	"sec"
$$ 		FORMAT	"%14.8f sec"
$$ 		TEXT	" "
$$ END
$$ T_NAME		D11
$$ 		TYPE	R32
$$ 		CLASS	ACQU
$$ 		SUBRANGE 0.0 1e38
$$ 		REL	"D11=D[11]"
$$ 		INV_REL	"D[11]=D11"
$$ 		UNIT	"sec"
$$ 		FORMAT	"%14.8f sec"
$$ 		TEXT	" "
$$ END
$$ T_NAME		D16
$$ 		TYPE	R32
$$ 		CLASS	ACQU
$$ 		SUBRANGE 0.0 1e38
$$ 		REL	"D16=D[16]"
$$ 		INV_REL	"D[16]=D16"
$$ 		UNIT	"sec"
$$ 		FORMAT	"%14.8f sec"
$$ 		TEXT	" "
$$ END
$$ T_NAME		D21
$$ 		TYPE	R32
$$ 		CLASS	ACQU
$$ 		SUBRANGE 0.0 1e38
$$ 		REL	"D21=D[21]"
$$ 		INV_REL	"D[21]=D21"
$$ 		UNIT	"sec"
$$ 		FORMAT	"%14.8f sec"
$$ 		TEXT	" "
$$ END
$$ T_NAME		IN0
$$ 		TYPE	R32
$$ 		CLASS	ACQU
$$ 		SUBRANGE 0.0 1e38
$$ 		REL	"IN0=IN[0]"
$$ 		INV_REL	"IN[0]=IN0"
$$ 		UNIT	"sec"
$$ 		FORMAT	"%14.8f sec"
$$ 		TEXT	" "
$$ END
$$ NAME		TDav
$$ 		TEXT	" "
$$ END
$$ NAME		ZGOPTNS
$$ 		TEXT	" "
$$ END
$$ NAME		SFO1
$$ 		FORMAT	"%14.7f MHz"
$$ 		TEXT	" "
$$ END
$$ NAME		NUC1
$$ 		NONEDIT
$$ 		TEXT	" "
$$ END
$$ T_NAME		P1
$$ 		TYPE	R32
$$ 		CLASS	ACQU
$$ 		SUBRANGE 0.0 1.0e10
$$ 		REL	"P1=P[1]"
$$ 		INV_REL	"P[1]=P1"
$$ 		UNIT	"usec"
$$ 		FORMAT	"%14.2f usec"
$$ 		TEXT	" "
$$ END
$$ T_NAME		P2
$$ 		TYPE	R32
$$ 		CLASS	ACQU
$$ 		SUBRANGE 0.0 1.0e10
$$ 		REL	"P2=P[2]"
$$ 		INV_REL	"P[2]=P2"
$$ 		UNIT	"usec"
$$ 		FORMAT	"%14.2f usec"
$$ 		TEXT	" "
$$ END
$$ T_NAME		PLW1
$$ 		TYPE	R32
$$ 		CLASS	ACQU
$$ 		REL	"PLW1=PLW[1]"
$$ 		INV_REL	"PLW[1]=PLW1"
$$ 		UNIT	"W"
$$ 		FORMAT	"%14.8f W"
$$ 		TEXT	"power PLW1 "
$$ END
$$ NAME		SFO2
$$ 		FORMAT	"%14.7f MHz"
$$ 		TEXT	" "
$$ END
$$ NAME		NUC2
$$ 		NONEDIT
$$ 		TEXT	" "
$$ END
$$ NAME		CPDPRG[2]
$$ 		TEXT	" "
$$ END
$$ T_NAME		P3
$$ 		TYPE	R32
$$ 		CLASS	ACQU
$$ 		SUBRANGE 0.0 1.0e10
$$ 		REL	"P3=P[3]"
$$ 		INV_REL	"P[3]=P3"
$$ 		UNIT	"usec"
$$ 		FORMAT	"%14.2f usec"
$$ 		TEXT	" "
$$ END
$$ T_NAME		P14
$$ 		TYPE	R32
$$ 		CLASS	ACQU
$$ 		SUBRANGE 0.0 1.0e10
$$ 		REL	"P14=P[14]"
$$ 		INV_REL	"P[14]=P14"
$$ 		UNIT	"usec"
$$ 		FORMAT	"%14.2f usec"
$$ 		TEXT	" "
$$ END
$$ T_NAME		P31
$$ 		TYPE	R32
$$ 		CLASS	ACQU
$$ 		SUBRANGE 0.0 1.0e10
$$ 		REL	"P31=P[31]"
$$ 		INV_REL	"P[31]=P31"
$$ 		UNIT	"usec"
$$ 		FORMAT	"%14.2f usec"
$$ 		TEXT	" "
$$ END
$$ T_NAME		P63
$$ 		TYPE	R32
$$ 		CLASS	ACQU
$$ 		SUBRANGE 0.0 1.0e10
$$ 		REL	"P63=P[63]"
$$ 		INV_REL	"P[63]=P63"
$$ 		UNIT	"usec"
$$ 		FORMAT	"%14.2f usec"
$$ 		TEXT	" "
$$ END
$$ T_NAME		PLW0
$$ 		TYPE	R32
$$ 		CLASS	ACQU
$$ 		REL	"PLW0=PLW[0]"
$$ 		INV_REL	"PLW[0]=PLW0"
$$ 		UNIT	"W"
$$ 		FORMAT	"%14.8f W"
$$ 		TEXT	"power PLW0 "
$$ END
$$ T_NAME		PLW2
$$ 		TYPE	R32
$$ 		CLASS	ACQU
$$ 		REL	"PLW2=PLW[2]"
$$ 		INV_REL	"PLW[2]=PLW2"
$$ 		UNIT	"W"
$$ 		FORMAT	"%14.8f W"
$$ 		TEXT	"power PLW2 "
$$ END
$$ T_NAME		PLW12
$$ 		TYPE	R32
$$ 		CLASS	ACQU
$$ 		REL	"PLW12=PLW[12]"
$$ 		INV_REL	"PLW[12]=PLW12"
$$ 		UNIT	"W"
$$ 		FORMAT	"%14.8f W"
$$ 		TEXT	"power PLW12 "
$$ END
$$ NAME		SPNAM[3]
$$ 		TEXT	" "
$$ END
$$ T_NAME		SPOAL3
$$ 		TYPE	R32
$$ 		CLASS	ACQU
$$ 		SUBRANGE -1.0 1.0
$$ 		REL	"SPOAL3=SPOAL[3]"
$$ 		INV_REL	"SPOAL[3]=SPOAL3"
$$ 		FORMAT	"%14.3f"
$$ 		TEXT	" "
$$ END
$$ T_NAME		SPOFFS3
$$ 		TYPE	R32
$$ 		CLASS	ACQU
$$ 		SUBRANGE -1e38 1e38
$$ 		REL	"SPOFFS3=SPOFFS[3]"
$$ 		INV_REL	"SPOFFS[0]=SPOFFS0"
$$ 		UNIT	"Hz"
$$ 		FORMAT	"%14.2f Hz"
$$ 		TEXT	" "
$$ END
$$ T_NAME		SPW3
$$ 		TYPE	R32
$$ 		CLASS	ACQU
$$ 		REL	"SPW3=SPW[3]"
$$ 		INV_REL	"SPW[3]=SPW3"
$$ 		UNIT	"W"
$$ 		FORMAT	"%14.8f W"
$$ 		TEXT	"shaped pulse power SPW3"
$$ END
$$ NAME		SPNAM[14]
$$ 		TEXT	" "
$$ END
$$ T_NAME		SPOAL14
$$ 		TYPE	R32
$$ 		CLASS	ACQU
$$ 		SUBRANGE -1.0 1.0
$$ 		REL	"SPOAL14=SPOAL[14]"
$$ 		INV_REL	"SPOAL[14]=SPOAL14"
$$ 		FORMAT	"%14.3f"
$$ 		TEXT	" "
$$ END
$$ T_NAME		SPOFFS14
$$ 		TYPE	R32
$$ 		CLASS	ACQU
$$ 		SUBRANGE -1e38 1e38
$$ 		REL	"SPOFFS14=SPOFFS[14]"
$$ 		INV_REL	"SPOFFS[0]=SPOFFS0"
$$ 		UNIT	"Hz"
$$ 		FORMAT	"%14.2f Hz"
$$ 		TEXT	" "
$$ END
$$ T_NAME		SPW14
$$ 		TYPE	R32
$$ 		CLASS	ACQU
$$ 		REL	"SPW14=SPW[14]"
$$ 		INV_REL	"SPW[14]=SPW14"
$$ 		UNIT	"W"
$$ 		FORMAT	"%14.8f W"
$$ 		TEXT	"shaped pulse power SPW14"
$$ END
$$ NAME		SPNAM[18]
$$ 		TEXT	" "
$$ END
$$ T_NAME		SPOAL18
$$ 		TYPE	R32
$$ 		CLASS	ACQU
$$ 		SUBRANGE -1.0 1.0
$$ 		REL	"SPOAL18=SPOAL[18]"
$$ 		INV_REL	"SPOAL[18]=SPOAL18"
$$ 		FORMAT	"%14.3f"
$$ 		TEXT	" "
$$ END
$$ T_NAME		SPOFFS18
$$ 		TYPE	R32
$$ 		CLASS	ACQU
$$ 		SUBRANGE -1e38 1e38
$$ 		REL	"SPOFFS18=SPOFFS[18]"
$$ 		INV_REL	"SPOFFS[0]=SPOFFS0"
$$ 		UNIT	"Hz"
$$ 		FORMAT	"%14.2f Hz"
$$ 		TEXT	" "
$$ END
$$ T_NAME		SPW18
$$ 		TYPE	R32
$$ 		CLASS	ACQU
$$ 		REL	"SPW18=SPW[18]"
$$ 		INV_REL	"SPW[18]=SPW18"
$$ 		UNIT	"W"
$$ 		FORMAT	"%14.8f W"
$$ 		TEXT	"shaped pulse power SPW18"
$$ END
$$ NAME		SPNAM[31]
$$ 		TEXT	" "
$$ END
$$ T_NAME		SPOAL31
$$ 		TYPE	R32
$$ 		CLASS	ACQU
$$ 		SUBRANGE -1.0 1.0
$$ 		REL	"SPOAL31=SPOAL[31]"
$$ 		INV_REL	"SPOAL[31]=SPOAL31"
$$ 		FORMAT	"%14.3f"
$$ 		TEXT	" "
$$ END
$$ T_NAME		SPOFFS31
$$ 		TYPE	R32
$$ 		CLASS	ACQU
$$ 		SUBRANGE -1e38 1e38
$$ 		REL	"SPOFFS31=SPOFFS[31]"
$$ 		INV_REL	"SPOFFS[0]=SPOFFS0"
$$ 		UNIT	"Hz"
$$ 		FORMAT	"%14.2f Hz"
$$ 		TEXT	" "
$$ END
$$ T_NAME		SPW31
$$ 		TYPE	R32
$$ 		CLASS	ACQU
$$ 		REL	"SPW31=SPW[31]"
$$ 		INV_REL	"SPW[31]=SPW31"
$$ 		UNIT	"W"
$$ 		FORMAT	"%14.8f W"
$$ 		TEXT	"shaped pulse power SPW31"
$$ END
$$ NAME		GPNAM[1]
$$ 		TEXT	" "
$$ END
$$ T_NAME		GPZ1
$$ 		TYPE	R32
$$ 		CLASS	ACQU
$$ 		SUBRANGE -100.0 100.0
$$ 		REL	"GPZ1=GPZ[1]"
$$ 		INV_REL	"GPZ[1]=GPZ1"
$$ 		UNIT	"%"
$$ 		FORMAT	"%14.2f %"
$$ 		TEXT	" "
$$ END
$$ NAME		GPNAM[2]
$$ 		TEXT	" "
$$ END
$$ T_NAME		GPZ2
$$ 		TYPE	R32
$$ 		CLASS	ACQU
$$ 		SUBRANGE -100.0 100.0
$$ 		REL	"GPZ2=GPZ[2]"
$$ 		INV_REL	"GPZ[2]=GPZ2"
$$ 		UNIT	"%"
$$ 		FORMAT	"%14.2f %"
$$ 		TEXT	" "
$$ END
$$ T_NAME		P16
$$ 		TYPE	R32
$$ 		CLASS	ACQU
$$ 		SUBRANGE 0.0 1.0e10
$$ 		REL	"P16=P[16]"
$$ 		INV_REL	"P[16]=P16"
$$ 		UNIT	"usec"
$$ 		FORMAT	"%14.2f usec"
$$ 		TEXT	" "
$$ END
##$RELAX= 
##$BRUKER FILE EXP=fq1list
$$ O 600.133901
$$ -5000000
$$ -4968750
$$ -4937500
$$ -4906250
$$ -4875000
$$ -4843750
$$ -4812500
$$ -4781250
$$ -4750000
$$ -4718750
$$ -4687500
$$ -4656250
$$ -4625000
$$ -4593750
$$ -4562500
$$ -4531250
$$ -4500000
$$ -4468750
$$ -4437500
$$ -4406250
$$ -4375000
$$ -4343750
$$ -4312500
$$ -4281250
$$ -4250000
$$ -4218750
$$ -4187500
$$ -4156250
$$ -4125000
$$ -4093750
$$ -4062500
$$ -4031250
$$ -4000000
$$ -3968750
$$ -3937500
$$ -3906250
$$ -3875000
$$ -3843750
$$ -3812500
$$ -3781250
$$ -3750000
$$ -3718750
$$ -3687500
$$ -3656250
$$ -3625000
$$ -3593750
$$ -3562500
$$ -3531250
$$ -3500000
$$ -3468750
$$ -3437500
$$ -3406250
$$ -3375000
$$ -3343750
$$ -3312500
$$ -3281250
$$ -3250000
$$ -3218750
$$ -3187500
$$ -3156250
$$ -3125000
$$ -3093750
$$ -3062500
$$ -3031250
$$ -3000000
$$ -2968750
$$ -2937500
$$ -2906250
$$ -2875000
$$ -2843750
$$ -2812500
$$ -2781250
$$ -2750000
$$ -2718750
$$ -2687500
$$ -2656250
$$ -2625000
$$ -2593750
$$ -2562500
$$ -2531250
$$ -2500000
$$ -2468750
$$ -2437500
$$ -2406250
$$ -2375000
$$ -2343750
$$ -2312500
$$ -2281250
$$ -2250000
$$ -2218750
$$ -2187500
$$ -2156250
$$ -2125000
$$ -2093750
$$ -2062500
$$ -2031250
$$ -2000000
$$ -1968750
$$ -1937500
$$ -1906250
$$ -1875000
$$ -1843750
$$ -1812500
$$ -1781250
$$ -1750000
$$ -1718750
$$ -1687500
$$ -1656250
$$ -1625000
$$ -1593750
$$ -1562500
$$ -1531250
$$ -1500000
$$ -1468750
$$ -1437500
$$ -1406250
$$ -1375000
$$ -1343750
$$ -1312500
$$ -1281250
$$ -1250000
$$ -1218750
$$ -1187500
$$ -1156250
$$ -1125000
$$ -1093750
$$ -1062500
$$ -1031250
$$ -1000000
$$  -992157
$$  -984314
$$  -976471
$$  -968627
$$  -960784
$$  -952941
$$  -945098
$$  -937255
$$  -929412
$$  -921569
$$  -913725
$$  -905882
$$  -898039
$$  -890196
$$  -882353
$$  -874510
$$  -866667
$$  -858824
$$  -850980
$$  -843137
$$  -835294
$$  -827451
$$  -819608
$$  -811765
$$  -803922
$$  -796078
$$  -788235
$$  -780392
$$  -772549
$$  -764706
$$  -756863
$$  -749020
$$  -741176
$$  -733333
$$  -725490
$$  -717647
$$  -709804
$$  -701961
$$  -694118
$$  -686275
$$  -678431
$$  -670588
$$  -662745
$$  -654902
$$  -647059
$$  -639216
$$  -631373
$$  -623529
$$  -615686
$$  -607843
$$  -600000
$$  -592157
$$  -584314
$$  -576471
$$  -568627
$$  -560784
$$  -552941
$$  -545098
$$  -537255
$$  -529412
$$  -521569
$$  -513725
$$  -505882
$$  -498039
$$  -490196
$$  -482353
$$  -474510
$$  -466667
$$  -458824
$$  -450980
$$  -443137
$$  -435294
$$  -427451
$$  -419608
$$  -411765
$$  -403922
$$  -396078
$$  -388235
$$  -380392
$$  -372549
$$  -364706
$$  -356863
$$  -349020
$$  -341176
$$  -333333
$$  -325490
$$  -317647
$$  -309804
$$  -301961
$$  -294118
$$  -286275
$$  -278431
$$  -270588
$$  -262745
$$  -254902
$$  -247059
$$  -239216
$$  -231373
$$  -223529
$$  -215686
$$  -207843
$$  -200000
$$  -192157
$$  -184314
$$  -176471
$$  -168627
$$  -160784
$$  -152941
$$  -145098
$$  -137255
$$  -129412
$$  -121569
$$  -113725
$$  -105882
$$   -98039
$$   -90196
$$   -82353
$$   -74510
$$   -66667
$$   -58824
$$   -50980
$$   -43137
$$   -35294
$$   -27451
$$   -19608
$$   -11765
$$    -3922
$$     3922
$$    11765
$$    19608
$$    27451
$$    35294
$$    43137
$$    50980
$$    58824
$$    66667
$$    74510
$$    82353
$$    90196
$$    98039
$$   105882
$$   113725
$$   121569
$$   129412
$$   137255
$$   145098
$$   152941
$$   160784
$$   168627
$$   176471
$$   184314
$$   192157
$$   200000
$$   207843
$$   215686
$$   223529
$$   231373
$$   239216
$$   247059
$$   254902
$$   262745
$$   270588
$$   278431
$$   286275
$$   294118
$$   301961
$$   309804
$$   317647
$$   325490
$$   333333
$$   341176
$$   349020
$$   356863
$$   364706
$$   372549
$$   380392
$$   388235
$$   396078
$$   403922
$$   411765
$$   419608
$$   427451
$$   435294
$$   443137
$$   450980
$$   458824
$$   466667
$$   474510
$$   482353
$$   490196
$$   498039
$$   505882
$$   513725
$$   521569
$$   529412
$$   537255
$$   545098
$$   552941
$$   560784
$$   568627
$$   576471
$$   584314
$$   592157
$$   600000
$$   607843
$$   615686
$$   623529
$$   631373
$$   639216
$$   647059
$$   654902
$$   662745
$$   670588
$$   678431
$$   686275
$$   694118
$$   701961
$$   709804
$$   717647
$$   725490
$$   733333
$$   741176
$$   749020
$$   756863
$$   764706
$$   772549
$$   780392
$$   788235
$$   796078
$$   803922
$$   811765
$$   819608
$$   827451
$$   835294
$$   843137
$$   850980
$$   858824
$$   866667
$$   874510
$$   882353
$$   890196
$$   898039
$$   905882
$$   913725
$$   921569
$$   929412
$$   937255
$$   945098
$$   952941
$$   960784
$$   968627
$$   976471
$$   984314
$$   992157
$$  1000000
$$  1031250
$$  1062500
$$  1093750
$$  1125000
$$  1156250
$$  1187500
$$  1218750
$$  1250000
$$  1281250
$$  1312500
$$  1343750
$$  1375000
$$  1406250
$$  1437500
$$  1468750
$$  1500000
$$  1531250
$$  1562500
$$  1593750
$$  1625000
$$  1656250
$$  1687500
$$  1718750
$$  1750000
$$  1781250
$$  1812500
$$  1843750
$$  1875000
$$  1906250
$$  1937500
$$  1968750
$$  2000000
$$  2031250
$$  2062500
$$  2093750
$$  2125000
$$  2156250
$$  2187500
$$  2218750
$$  2250000
$$  2281250
$$  2312500
$$  2343750
$$  2375000
$$  2406250
$$  2437500
$$  2468750
$$  2500000
$$  2531250
$$  2562500
$$  2593750
$$  2625000
$$  2656250
$$  2687500
$$  2718750
$$  2750000
$$  2781250
$$  2812500
$$  2843750
$$  2875000
$$  2906250
$$  2937500
$$  2968750
$$  3000000
$$  3031250
$$  3062500
$$  3093750
$$  3125000
$$  3156250
$$  3187500
$$  3218750
$$  3250000
$$  3281250
$$  3312500
$$  3343750
$$  3375000
$$  3406250
$$  3437500
$$  3468750
$$  3500000
$$  3531250
$$  3562500
$$  3593750
$$  3625000
$$  3656250
$$  3687500
$$  3718750
$$  3750000
$$  3781250
$$  3812500
$$  3843750
$$  3875000
$$  3906250
$$  3937500
$$  3968750
$$  4000000
$$  4031250
$$  4062500
$$  4093750
$$  4125000
$$  4156250
$$  4187500
$$  4218750
$$  4250000
$$  4281250
$$  4312500
$$  4343750
$$  4375000
$$  4406250
$$  4437500
$$  4468750
$$  4500000
$$  4531250
$$  4562500
$$  4593750
$$  4625000
$$  4656250
$$  4687500
$$  4718750
$$  4750000
$$  4781250
$$  4812500
$$  4843750
$$  4875000
$$  4906250
$$  4937500
$$  4968750
$$  5000000
##$RELAX= 
##$BRUKER FILE EXP=gpnam1
$$ ##TITLE= SmoothedChirp Amplitide
$$ ##JCAMP-DX= 5.00 Bruker JCAMP library
$$ ##DATA TYPE= Shape Data
$$ ##ORIGIN= Bruker BioSpin GmbH
$$ ##OWNER= <demo>
$$ ##DATE= 2004/09/06
$$ ##TIME= 16:28:02
$$ ##$SHAPE_PARAMETERS= Type: SmoothedSquare
$$ ##MINX= 0.000000E00
$$ ##MAXX= 1.000000E02
$$ ##MINY= 0.000000E00
$$ ##MAXY= 1.000000E00
$$ ##$SHAPE_EXMODE= Gradient
$$ ##$SHAPE_TOTROT= 0.000000E00
$$ ##$SHAPE_TYPE= None
$$ ##$SHAPE_USER_DEF= 
$$ ##$SHAPE_REPHFAC= 
$$ ##$SHAPE_BWFAC= 0.000000E00
$$ ##$SHAPE_BWFAC50= 
$$ ##$SHAPE_INTEGFAC= 9.000000E-01
$$ ##$SHAPE_MODE= 0
$$ ##NPOINTS= 100
$$ ##XYDATA= (X++(Y..Y))
$$ 0.000000E00
$$ 3.015369E-02
$$ 1.169778E-01
$$ 2.500000E-01
$$ 4.131759E-01
$$ 5.868241E-01
$$ 7.500000E-01
$$ 8.830222E-01
$$ 9.698463E-01
$$ 1.000000E00
$$ 1.000000E00
$$ 1.000000E00
$$ 1.000000E00
$$ 1.000000E00
$$ 1.000000E00
$$ 1.000000E00
$$ 1.000000E00
$$ 1.000000E00
$$ 1.000000E00
$$ 1.000000E00
$$ 1.000000E00
$$ 1.000000E00
$$ 1.000000E00
$$ 1.000000E00
$$ 1.000000E00
$$ 1.000000E00
$$ 1.000000E00
$$ 1.000000E00
$$ 1.000000E00
$$ 1.000000E00
$$ 1.000000E00
$$ 1.000000E00
$$ 1.000000E00
$$ 1.000000E00
$$ 1.000000E00
$$ 1.000000E00
$$ 1.000000E00
$$ 1.000000E00
$$ 1.000000E00
$$ 1.000000E00
$$ 1.000000E00
$$ 1.000000E00
$$ 1.000000E00
$$ 1.000000E00
$$ 1.000000E00
$$ 1.000000E00
$$ 1.000000E00
$$ 1.000000E00
$$ 1.000000E00
$$ 1.000000E00
$$ 1.000000E00
$$ 1.000000E00
$$ 1.000000E00
$$ 1.000000E00
$$ 1.000000E00
$$ 1.000000E00
$$ 1.000000E00
$$ 1.000000E00
$$ 1.000000E00
$$ 1.000000E00
$$ 1.000000E00
$$ 1.000000E00
$$ 1.000000E00
$$ 1.000000E00
$$ 1.000000E00
$$ 1.000000E00
$$ 1.000000E00
$$ 1.000000E00
$$ 1.000000E00
$$ 1.000000E00
$$ 1.000000E00
$$ 1.000000E00
$$ 1.000000E00
$$ 1.000000E00
$$ 1.000000E00
$$ 1.000000E00
$$ 1.000000E00
$$ 1.000000E00
$$ 1.000000E00
$$ 1.000000E00
$$ 1.000000E00
$$ 1.000000E00
$$ 1.000000E00
$$ 1.000000E00
$$ 1.000000E00
$$ 1.000000E00
$$ 1.000000E00
$$ 1.000000E00
$$ 1.000000E00
$$ 1.000000E00
$$ 1.000000E00
$$ 9.698463E-01
$$ 8.830222E-01
$$ 7.500000E-01
$$ 5.868241E-01
$$ 4.131759E-01
$$ 2.500000E-01
$$ 1.169778E-01
$$ 3.015369E-02
$$ 0.000000E00
$$ ##END
##$RELAX= 
##$BRUKER FILE EXP=gpnam2
$$ ##TITLE= SmoothedChirp Amplitide
$$ ##JCAMP-DX= 5.00 Bruker JCAMP library
$$ ##DATA TYPE= Shape Data
$$ ##ORIGIN= Bruker BioSpin GmbH
$$ ##OWNER= <demo>
$$ ##DATE= 2004/09/06
$$ ##TIME= 16:28:02
$$ ##$SHAPE_PARAMETERS= Type: SmoothedSquare
$$ ##MINX= 0.000000E00
$$ ##MAXX= 1.000000E02
$$ ##MINY= 0.000000E00
$$ ##MAXY= 1.000000E00
$$ ##$SHAPE_EXMODE= Gradient
$$ ##$SHAPE_TOTROT= 0.000000E00
$$ ##$SHAPE_TYPE= None
$$ ##$SHAPE_USER_DEF= 
$$ ##$SHAPE_REPHFAC= 
$$ ##$SHAPE_BWFAC= 0.000000E00
$$ ##$SHAPE_BWFAC50= 
$$ ##$SHAPE_INTEGFAC= 9.000000E-01
$$ ##$SHAPE_MODE= 0
$$ ##NPOINTS= 100
$$ ##XYDATA= (X++(Y..Y))
$$ 0.000000E00
$$ 3.015369E-02
$$ 1.169778E-01
$$ 2.500000E-01
$$ 4.131759E-01
$$ 5.868241E-01
$$ 7.500000E-01
$$ 8.830222E-01
$$ 9.698463E-01
$$ 1.000000E00
$$ 1.000000E00
$$ 1.000000E00
$$ 1.000000E00
$$ 1.000000E00
$$ 1.000000E00
$$ 1.000000E00
$$ 1.000000E00
$$ 1.000000E00
$$ 1.000000E00
$$ 1.000000E00
$$ 1.000000E00
$$ 1.000000E00
$$ 1.000000E00
$$ 1.000000E00
$$ 1.000000E00
$$ 1.000000E00
$$ 1.000000E00
$$ 1.000000E00
$$ 1.000000E00
$$ 1.000000E00
$$ 1.000000E00
$$ 1.000000E00
$$ 1.000000E00
$$ 1.000000E00
$$ 1.000000E00
$$ 1.000000E00
$$ 1.000000E00
$$ 1.000000E00
$$ 1.000000E00
$$ 1.000000E00
$$ 1.000000E00
$$ 1.000000E00
$$ 1.000000E00
$$ 1.000000E00
$$ 1.000000E00
$$ 1.000000E00
$$ 1.000000E00
$$ 1.000000E00
$$ 1.000000E00
$$ 1.000000E00
$$ 1.000000E00
$$ 1.000000E00
$$ 1.000000E00
$$ 1.000000E00
$$ 1.000000E00
$$ 1.000000E00
$$ 1.000000E00
$$ 1.000000E00
$$ 1.000000E00
$$ 1.000000E00
$$ 1.000000E00
$$ 1.000000E00
$$ 1.000000E00
$$ 1.000000E00
$$ 1.000000E00
$$ 1.000000E00
$$ 1.000000E00
$$ 1.000000E00
$$ 1.000000E00
$$ 1.000000E00
$$ 1.000000E00
$$ 1.000000E00
$$ 1.000000E00
$$ 1.000000E00
$$ 1.000000E00
$$ 1.000000E00
$$ 1.000000E00
$$ 1.000000E00
$$ 1.000000E00
$$ 1.000000E00
$$ 1.000000E00
$$ 1.000000E00
$$ 1.000000E00
$$ 1.000000E00
$$ 1.000000E00
$$ 1.000000E00
$$ 1.000000E00
$$ 1.000000E00
$$ 1.000000E00
$$ 1.000000E00
$$ 1.000000E00
$$ 9.698463E-01
$$ 8.830222E-01
$$ 7.500000E-01
$$ 5.868241E-01
$$ 4.131759E-01
$$ 2.500000E-01
$$ 1.169778E-01
$$ 3.015369E-02
$$ 0.000000E00
$$ ##END
##$RELAX= 
##$BRUKER FILE EXP=scon2
$$ ##TITLE= Parameter file, TopSpin 3.6.4
$$ ##JCAMPDX= 5.0
$$ ##DATATYPE= Parameter Values
$$ ##NPOINTS= 1	$$ modification sequence number
$$ ##ORIGIN= Bruker BioSpin GmbH
$$ ##OWNER= AVIII600
$$ $$ 2024-10-18 21:53:11.827 +0200  AVIII600@AV3600
$$ $$ D:/Bruker/Topspin/data/AVIII600/nmr/20241018-AVIII600/244/scon2
$$ $$ process C:\Bruker\TopSpin3.6.4\prog\mod\go4.exe
$$ ##$BLKTR= (0..19)
$$ 3 3 3 3 3 3 3 3 3 3 3 3 3 3 3 3 3 3 3 3
$$ ##$DE1= 4.5
$$ ##$DEADC= 0.5
$$ ##$DEPA= 4.5
$$ ##$DERX= 1.5
$$ ##$FILCOR= 0.84
$$ ##$GRADCHAN= 0
$$ ##$GRADPRE= (0..1)
$$ 10 10
$$ ##$HD_BLKTR= (0..19)
$$ 1 1 1 1 1 1 1 1 1 1 1 1 1 1 1 1 1 1 1 1
$$ ##$HD_DE1= 5
$$ ##$HD_DEADC= 0
$$ ##$HD_DEPA= 2.5
$$ ##$HD_DERX= 0
$$ ##END=
##$RELAX= 
##$BRUKER FILE EXP=spnam3
$$ ##TITLE= sm. Chirp, 60kHz, 500us
$$ ##JCAMP-DX= 5.00 Bruker JCAMP library
$$ ##DATA TYPE= Shape Data
$$ ##ORIGIN= Bruker BioSpin GmbH
$$ ##OWNER= <demo>
$$ ##DATE= 2005/09/22
$$ ##TIME= 17:26:40
$$ ##$SHAPE_PARAMETERS= Type: SmoothedChirp ; Total Sweep-Width [Hz] 60000.0 ; Length of Pulse [usec] 500.0 ; % to be smoothed 20.0 ; 1=High to low field, -1=Low to high field -1.0 ; smoothing 0.0
$$ ##MINX= 0.000000E00
$$ ##MAXX= 1.000000E02
$$ ##MINY= 1.350000E-03
$$ ##MAXY= 3.580537E02
$$ ##$SHAPE_EXMODE= Adiabatic
$$ ##$SHAPE_TOTROT= 1.800000E02
$$ ##$SHAPE_TYPE= Inversion
$$ ##$SHAPE_USER_DEF= 
$$ ##$SHAPE_REPHFAC= 
$$ ##$SHAPE_BWFAC= 2.143200E01
$$ ##$SHAPE_BWFAC50= 
$$ ##$SHAPE_INTEGFAC= 1.023327E-01
$$ ##$SHAPE_MODE= 0
$$ ##NPOINTS= 1000
$$ ##XYPOINTS= (XY..XY)
$$ 0.000000E00, 2.673013E02
$$ 7.893367E-01, 2.619122E02
$$ 1.578624E00, 2.565338E02
$$ 2.367813E00, 2.511662E02
$$ 3.156855E00, 2.458093E02
$$ 3.945700E00, 2.404633E02
$$ 4.734299E00, 2.351282E02
$$ 5.522603E00, 2.298037E02
$$ 6.310563E00, 2.244901E02
$$ 7.098130E00, 2.191873E02
$$ 7.885255E00, 2.138954E02
$$ 8.671888E00, 2.086142E02
$$ 9.457981E00, 2.033437E02
$$ 1.024348E01, 1.980841E02
$$ 1.102835E01, 1.928353E02
$$ 1.181253E01, 1.875973E02
$$ 1.259597E01, 1.823701E02
$$ 1.337863E01, 1.771537E02
$$ 1.416045E01, 1.719481E02
$$ 1.494139E01, 1.667533E02
$$ 1.572140E01, 1.615694E02
$$ 1.650044E01, 1.563961E02
$$ 1.727844E01, 1.512337E02
$$ 1.805537E01, 1.460821E02
$$ 1.883117E01, 1.409413E02
$$ 1.960579E01, 1.358113E02
$$ 2.037920E01, 1.306921E02
$$ 2.115134E01, 1.255838E02
$$ 2.192216E01, 1.204861E02
$$ 2.269161E01, 1.153994E02
$$ 2.345965E01, 1.103233E02
$$ 2.422623E01, 1.052581E02
$$ 2.499130E01, 1.002037E02
$$ 2.575481E01, 9.516015E01
$$ 2.651671E01, 9.012735E01
$$ 2.727697E01, 8.510535E01
$$ 2.803552E01, 8.009415E01
$$ 2.879233E01, 7.509375E01
$$ 2.954734E01, 7.010415E01
$$ 3.030052E01, 6.512535E01
$$ 3.105180E01, 6.015735E01
$$ 3.180115E01, 5.520015E01
$$ 3.254852E01, 5.025375E01
$$ 3.329386E01, 4.531815E01
$$ 3.403713E01, 4.039335E01
$$ 3.477828E01, 3.547935E01
$$ 3.551726E01, 3.057615E01
$$ 3.625402E01, 2.568375E01
$$ 3.698853E01, 2.080215E01
$$ 3.772073E01, 1.593135E01
$$ 3.845058E01, 1.107135E01
$$ 3.917804E01, 6.222150E00
$$ 3.990306E01, 1.383750E00
$$ 4.062559E01, 3.565561E02
$$ 4.134558E01, 3.517394E02
$$ 4.206301E01, 3.469333E02
$$ 4.277781E01, 3.421382E02
$$ 4.348994E01, 3.373537E02
$$ 4.419937E01, 3.325802E02
$$ 4.490604E01, 3.278174E02
$$ 4.560992E01, 3.230654E02
$$ 4.631095E01, 3.183241E02
$$ 4.700910E01, 3.135937E02
$$ 4.770431E01, 3.088741E02
$$ 4.839656E01, 3.041653E02
$$ 4.908579E01, 2.994674E02
$$ 4.977196E01, 2.947801E02
$$ 5.045503E01, 2.901038E02
$$ 5.113496E01, 2.854381E02
$$ 5.181170E01, 2.807834E02
$$ 5.248522E01, 2.761393E02
$$ 5.315546E01, 2.715062E02
$$ 5.382239E01, 2.668837E02
$$ 5.448597E01, 2.622721E02
$$ 5.514615E01, 2.576713E02
$$ 5.580290E01, 2.530813E02
$$ 5.645617E01, 2.485021E02
$$ 5.710592E01, 2.439337E02
$$ 5.775212E01, 2.393761E02
$$ 5.839471E01, 2.348293E02
$$ 5.903367E01, 2.302934E02
$$ 5.966895E01, 2.257682E02
$$ 6.030051E01, 2.212537E02
$$ 6.092832E01, 2.167501E02
$$ 6.155232E01, 2.122573E02
$$ 6.217250E01, 2.077754E02
$$ 6.278880E01, 2.033041E02
$$ 6.340118E01, 1.988438E02
$$ 6.400962E01, 1.943941E02
$$ 6.461407E01, 1.899553E02
$$ 6.521449E01, 1.855274E02
$$ 6.581085E01, 1.811101E02
$$ 6.640311E01, 1.767037E02
$$ 6.699124E01, 1.723081E02
$$ 6.757518E01, 1.679233E02
$$ 6.815492E01, 1.635493E02
$$ 6.873041E01, 1.591862E02
$$ 6.930162E01, 1.548337E02
$$ 6.986851E01, 1.504922E02
$$ 7.043105E01, 1.461613E02
$$ 7.098920E01, 1.418414E02
$$ 7.154293E01, 1.375321E02
$$ 7.209220E01, 1.332337E02
$$ 7.263698E01, 1.289461E02
$$ 7.317723E01, 1.246693E02
$$ 7.371292E01, 1.204033E02
$$ 7.424402E01, 1.161481E02
$$ 7.477049E01, 1.119038E02
$$ 7.529231E01, 1.076701E02
$$ 7.580943E01, 1.034473E02
$$ 7.632183E01, 9.923535E01
$$ 7.682948E01, 9.503415E01
$$ 7.733233E01, 9.084375E01
$$ 7.783037E01, 8.666415E01
$$ 7.832356E01, 8.249535E01
$$ 7.881187E01, 7.833735E01
$$ 7.929527E01, 7.419015E01
$$ 7.977373E01, 7.005375E01
$$ 8.024722E01, 6.592815E01
$$ 8.071571E01, 6.181335E01
$$ 8.117917E01, 5.770935E01
$$ 8.163757E01, 5.361615E01
$$ 8.209089E01, 4.953375E01
$$ 8.253909E01, 4.546215E01
$$ 8.298215E01, 4.140135E01
$$ 8.342003E01, 3.735135E01
$$ 8.385272E01, 3.331215E01
$$ 8.428019E01, 2.928375E01
$$ 8.470240E01, 2.526615E01
$$ 8.511934E01, 2.125935E01
$$ 8.553097E01, 1.726335E01
$$ 8.593728E01, 1.327815E01
$$ 8.633823E01, 9.303750E00
$$ 8.673380E01, 5.340150E00
$$ 8.712396E01, 1.387350E00
$$ 8.750870E01, 3.574453E02
$$ 8.788799E01, 3.535142E02
$$ 8.826180E01, 3.495938E02
$$ 8.863011E01, 3.456842E02
$$ 8.899290E01, 3.417854E02
$$ 8.935014E01, 3.378973E02
$$ 8.970182E01, 3.340202E02
$$ 9.004790E01, 3.301537E02
$$ 9.038838E01, 3.262981E02
$$ 9.072323E01, 3.224533E02
$$ 9.105242E01, 3.186193E02
$$ 9.137594E01, 3.147962E02
$$ 9.169376E01, 3.109838E02
$$ 9.200588E01, 3.071822E02
$$ 9.231226E01, 3.033914E02
$$ 9.261288E01, 2.996114E02
$$ 9.290774E01, 2.958421E02
$$ 9.319681E01, 2.920838E02
$$ 9.348008E01, 2.883361E02
$$ 9.375751E01, 2.845993E02
$$ 9.402911E01, 2.808733E02
$$ 9.429485E01, 2.771582E02
$$ 9.455471E01, 2.734537E02
$$ 9.480868E01, 2.697602E02
$$ 9.505675E01, 2.660774E02
$$ 9.529889E01, 2.624053E02
$$ 9.553510E01, 2.587442E02
$$ 9.576535E01, 2.550937E02
$$ 9.598963E01, 2.514542E02
$$ 9.620794E01, 2.478253E02
$$ 9.642025E01, 2.442074E02
$$ 9.662655E01, 2.406001E02
$$ 9.682683E01, 2.370037E02
$$ 9.702108E01, 2.334181E02
$$ 9.720928E01, 2.298434E02
$$ 9.739143E01, 2.262794E02
$$ 9.756751E01, 2.227261E02
$$ 9.773751E01, 2.191837E02
$$ 9.790142E01, 2.156521E02
$$ 9.805923E01, 2.121314E02
$$ 9.821093E01, 2.086213E02
$$ 9.835651E01, 2.051222E02
$$ 9.849597E01, 2.016337E02
$$ 9.862928E01, 1.981562E02
$$ 9.875646E01, 1.946894E02
$$ 9.887747E01, 1.912333E02
$$ 9.899233E01, 1.877881E02
$$ 9.910102E01, 1.843537E02
$$ 9.920354E01, 1.809301E02
$$ 9.929987E01, 1.775173E02
$$ 9.939002E01, 1.741154E02
$$ 9.947397E01, 1.707241E02
$$ 9.955173E01, 1.673438E02
$$ 9.962328E01, 1.639742E02
$$ 9.968863E01, 1.606154E02
$$ 9.974776E01, 1.572673E02
$$ 9.980069E01, 1.539301E02
$$ 9.984739E01, 1.506038E02
$$ 9.988787E01, 1.472881E02
$$ 9.992213E01, 1.439833E02
$$ 9.995016E01, 1.406894E02
$$ 9.997196E01, 1.374062E02
$$ 9.998754E01, 1.341337E02
$$ 9.999688E01, 1.308721E02
$$ 1.000000E02, 1.276213E02
$$ 1.000000E02, 1.243813E02
$$ 1.000000E02, 1.211521E02
$$ 1.000000E02, 1.179337E02
$$ 1.000000E02, 1.147261E02
$$ 1.000000E02, 1.115293E02
$$ 1.000000E02, 1.083433E02
$$ 1.000000E02, 1.051681E02
$$ 1.000000E02, 1.020038E02
$$ 1.000000E02, 9.885015E01
$$ 1.000000E02, 9.570735E01
$$ 1.000000E02, 9.257535E01
$$ 1.000000E02, 8.945415E01
$$ 1.000000E02, 8.634375E01
$$ 1.000000E02, 8.324415E01
$$ 1.000000E02, 8.015535E01
$$ 1.000000E02, 7.707735E01
$$ 1.000000E02, 7.401015E01
$$ 1.000000E02, 7.095375E01
$$ 1.000000E02, 6.790815E01
$$ 1.000000E02, 6.487335E01
$$ 1.000000E02, 6.184935E01
$$ 1.000000E02, 5.883615E01
$$ 1.000000E02, 5.583375E01
$$ 1.000000E02, 5.284215E01
$$ 1.000000E02, 4.986135E01
$$ 1.000000E02, 4.689135E01
$$ 1.000000E02, 4.393215E01
$$ 1.000000E02, 4.098375E01
$$ 1.000000E02, 3.804615E01
$$ 1.000000E02, 3.511935E01
$$ 1.000000E02, 3.220335E01
$$ 1.000000E02, 2.929815E01
$$ 1.000000E02, 2.640375E01
$$ 1.000000E02, 2.352015E01
$$ 1.000000E02, 2.064735E01
$$ 1.000000E02, 1.778535E01
$$ 1.000000E02, 1.493415E01
$$ 1.000000E02, 1.209375E01
$$ 1.000000E02, 9.264150E00
$$ 1.000000E02, 6.445350E00
$$ 1.000000E02, 3.637350E00
$$ 1.000000E02, 8.401500E-01
$$ 1.000000E02, 3.580537E02
$$ 1.000000E02, 3.552782E02
$$ 1.000000E02, 3.525133E02
$$ 1.000000E02, 3.497594E02
$$ 1.000000E02, 3.470161E02
$$ 1.000000E02, 3.442838E02
$$ 1.000000E02, 3.415622E02
$$ 1.000000E02, 3.388513E02
$$ 1.000000E02, 3.361514E02
$$ 1.000000E02, 3.334621E02
$$ 1.000000E02, 3.307838E02
$$ 1.000000E02, 3.281161E02
$$ 1.000000E02, 3.254594E02
$$ 1.000000E02, 3.228133E02
$$ 1.000000E02, 3.201781E02
$$ 1.000000E02, 3.175538E02
$$ 1.000000E02, 3.149401E02
$$ 1.000000E02, 3.123374E02
$$ 1.000000E02, 3.097454E02
$$ 1.000000E02, 3.071642E02
$$ 1.000000E02, 3.045938E02
$$ 1.000000E02, 3.020342E02
$$ 1.000000E02, 2.994853E02
$$ 1.000000E02, 2.969473E02
$$ 1.000000E02, 2.944201E02
$$ 1.000000E02, 2.919038E02
$$ 1.000000E02, 2.893982E02
$$ 1.000000E02, 2.869034E02
$$ 1.000000E02, 2.844194E02
$$ 1.000000E02, 2.819462E02
$$ 1.000000E02, 2.794838E02
$$ 1.000000E02, 2.770322E02
$$ 1.000000E02, 2.745913E02
$$ 1.000000E02, 2.721613E02
$$ 1.000000E02, 2.697421E02
$$ 1.000000E02, 2.673337E02
$$ 1.000000E02, 2.649362E02
$$ 1.000000E02, 2.625494E02
$$ 1.000000E02, 2.601733E02
$$ 1.000000E02, 2.578082E02
$$ 1.000000E02, 2.554538E02
$$ 1.000000E02, 2.531101E02
$$ 1.000000E02, 2.507773E02
$$ 1.000000E02, 2.484553E02
$$ 1.000000E02, 2.461441E02
$$ 1.000000E02, 2.438437E02
$$ 1.000000E02, 2.415542E02
$$ 1.000000E02, 2.392753E02
$$ 1.000000E02, 2.370073E02
$$ 1.000000E02, 2.347502E02
$$ 1.000000E02, 2.325038E02
$$ 1.000000E02, 2.302681E02
$$ 1.000000E02, 2.280433E02
$$ 1.000000E02, 2.258293E02
$$ 1.000000E02, 2.236261E02
$$ 1.000000E02, 2.214338E02
$$ 1.000000E02, 2.192521E02
$$ 1.000000E02, 2.170814E02
$$ 1.000000E02, 2.149214E02
$$ 1.000000E02, 2.127722E02
$$ 1.000000E02, 2.106338E02
$$ 1.000000E02, 2.085061E02
$$ 1.000000E02, 2.063893E02
$$ 1.000000E02, 2.042833E02
$$ 1.000000E02, 2.021881E02
$$ 1.000000E02, 2.001038E02
$$ 1.000000E02, 1.980302E02
$$ 1.000000E02, 1.959673E02
$$ 1.000000E02, 1.939154E02
$$ 1.000000E02, 1.918742E02
$$ 1.000000E02, 1.898438E02
$$ 1.000000E02, 1.878241E02
$$ 1.000000E02, 1.858153E02
$$ 1.000000E02, 1.838173E02
$$ 1.000000E02, 1.818301E02
$$ 1.000000E02, 1.798538E02
$$ 1.000000E02, 1.778882E02
$$ 1.000000E02, 1.759334E02
$$ 1.000000E02, 1.739894E02
$$ 1.000000E02, 1.720562E02
$$ 1.000000E02, 1.701338E02
$$ 1.000000E02, 1.682221E02
$$ 1.000000E02, 1.663213E02
$$ 1.000000E02, 1.644313E02
$$ 1.000000E02, 1.625521E02
$$ 1.000000E02, 1.606838E02
$$ 1.000000E02, 1.588261E02
$$ 1.000000E02, 1.569794E02
$$ 1.000000E02, 1.551434E02
$$ 1.000000E02, 1.533182E02
$$ 1.000000E02, 1.515038E02
$$ 1.000000E02, 1.497001E02
$$ 1.000000E02, 1.479073E02
$$ 1.000000E02, 1.461253E02
$$ 1.000000E02, 1.443542E02
$$ 1.000000E02, 1.425938E02
$$ 1.000000E02, 1.408441E02
$$ 1.000000E02, 1.391054E02
$$ 1.000000E02, 1.373774E02
$$ 1.000000E02, 1.356602E02
$$ 1.000000E02, 1.339537E02
$$ 1.000000E02, 1.322581E02
$$ 1.000000E02, 1.305734E02
$$ 1.000000E02, 1.288993E02
$$ 1.000000E02, 1.272362E02
$$ 1.000000E02, 1.255838E02
$$ 1.000000E02, 1.239422E02
$$ 1.000000E02, 1.223114E02
$$ 1.000000E02, 1.206914E02
$$ 1.000000E02, 1.190822E02
$$ 1.000000E02, 1.174837E02
$$ 1.000000E02, 1.158961E02
$$ 1.000000E02, 1.143193E02
$$ 1.000000E02, 1.127534E02
$$ 1.000000E02, 1.111981E02
$$ 1.000000E02, 1.096538E02
$$ 1.000000E02, 1.081202E02
$$ 1.000000E02, 1.065974E02
$$ 1.000000E02, 1.050854E02
$$ 1.000000E02, 1.035842E02
$$ 1.000000E02, 1.020937E02
$$ 1.000000E02, 1.006141E02
$$ 1.000000E02, 9.914535E01
$$ 1.000000E02, 9.768735E01
$$ 1.000000E02, 9.624015E01
$$ 1.000000E02, 9.480375E01
$$ 1.000000E02, 9.337815E01
$$ 1.000000E02, 9.196335E01
$$ 1.000000E02, 9.055935E01
$$ 1.000000E02, 8.916615E01
$$ 1.000000E02, 8.778375E01
$$ 1.000000E02, 8.641215E01
$$ 1.000000E02, 8.505135E01
$$ 1.000000E02, 8.370135E01
$$ 1.000000E02, 8.236215E01
$$ 1.000000E02, 8.103375E01
$$ 1.000000E02, 7.971615E01
$$ 1.000000E02, 7.840935E01
$$ 1.000000E02, 7.711335E01
$$ 1.000000E02, 7.582815E01
$$ 1.000000E02, 7.455375E01
$$ 1.000000E02, 7.329015E01
$$ 1.000000E02, 7.203735E01
$$ 1.000000E02, 7.079535E01
$$ 1.000000E02, 6.956415E01
$$ 1.000000E02, 6.834375E01
$$ 1.000000E02, 6.713415E01
$$ 1.000000E02, 6.593535E01
$$ 1.000000E02, 6.474735E01
$$ 1.000000E02, 6.357015E01
$$ 1.000000E02, 6.240375E01
$$ 1.000000E02, 6.124815E01
$$ 1.000000E02, 6.010335E01
$$ 1.000000E02, 5.896935E01
$$ 1.000000E02, 5.784615E01
$$ 1.000000E02, 5.673375E01
$$ 1.000000E02, 5.563215E01
$$ 1.000000E02, 5.454135E01
$$ 1.000000E02, 5.346135E01
$$ 1.000000E02, 5.239215E01
$$ 1.000000E02, 5.133375E01
$$ 1.000000E02, 5.028615E01
$$ 1.000000E02, 4.924935E01
$$ 1.000000E02, 4.822335E01
$$ 1.000000E02, 4.720815E01
$$ 1.000000E02, 4.620375E01
$$ 1.000000E02, 4.521015E01
$$ 1.000000E02, 4.422735E01
$$ 1.000000E02, 4.325535E01
$$ 1.000000E02, 4.229415E01
$$ 1.000000E02, 4.134375E01
$$ 1.000000E02, 4.040415E01
$$ 1.000000E02, 3.947535E01
$$ 1.000000E02, 3.855735E01
$$ 1.000000E02, 3.765015E01
$$ 1.000000E02, 3.675375E01
$$ 1.000000E02, 3.586815E01
$$ 1.000000E02, 3.499335E01
$$ 1.000000E02, 3.412935E01
$$ 1.000000E02, 3.327615E01
$$ 1.000000E02, 3.243375E01
$$ 1.000000E02, 3.160215E01
$$ 1.000000E02, 3.078135E01
$$ 1.000000E02, 2.997135E01
$$ 1.000000E02, 2.917215E01
$$ 1.000000E02, 2.838375E01
$$ 1.000000E02, 2.760615E01
$$ 1.000000E02, 2.683935E01
$$ 1.000000E02, 2.608335E01
$$ 1.000000E02, 2.533815E01
$$ 1.000000E02, 2.460375E01
$$ 1.000000E02, 2.388015E01
$$ 1.000000E02, 2.316735E01
$$ 1.000000E02, 2.246535E01
$$ 1.000000E02, 2.177415E01
$$ 1.000000E02, 2.109375E01
$$ 1.000000E02, 2.042415E01
$$ 1.000000E02, 1.976535E01
$$ 1.000000E02, 1.911735E01
$$ 1.000000E02, 1.848015E01
$$ 1.000000E02, 1.785375E01
$$ 1.000000E02, 1.723815E01
$$ 1.000000E02, 1.663335E01
$$ 1.000000E02, 1.603935E01
$$ 1.000000E02, 1.545615E01
$$ 1.000000E02, 1.488375E01
$$ 1.000000E02, 1.432215E01
$$ 1.000000E02, 1.377135E01
$$ 1.000000E02, 1.323135E01
$$ 1.000000E02, 1.270215E01
$$ 1.000000E02, 1.218375E01
$$ 1.000000E02, 1.167615E01
$$ 1.000000E02, 1.117935E01
$$ 1.000000E02, 1.069335E01
$$ 1.000000E02, 1.021815E01
$$ 1.000000E02, 9.753750E00
$$ 1.000000E02, 9.300150E00
$$ 1.000000E02, 8.857350E00
$$ 1.000000E02, 8.425350E00
$$ 1.000000E02, 8.004150E00
$$ 1.000000E02, 7.593750E00
$$ 1.000000E02, 7.194150E00
$$ 1.000000E02, 6.805350E00
$$ 1.000000E02, 6.427350E00
$$ 1.000000E02, 6.060150E00
$$ 1.000000E02, 5.703750E00
$$ 1.000000E02, 5.358150E00
$$ 1.000000E02, 5.023350E00
$$ 1.000000E02, 4.699350E00
$$ 1.000000E02, 4.386150E00
$$ 1.000000E02, 4.083750E00
$$ 1.000000E02, 3.792150E00
$$ 1.000000E02, 3.511350E00
$$ 1.000000E02, 3.241350E00
$$ 1.000000E02, 2.982150E00
$$ 1.000000E02, 2.733750E00
$$ 1.000000E02, 2.496150E00
$$ 1.000000E02, 2.269350E00
$$ 1.000000E02, 2.053350E00
$$ 1.000000E02, 1.848150E00
$$ 1.000000E02, 1.653750E00
$$ 1.000000E02, 1.470150E00
$$ 1.000000E02, 1.297350E00
$$ 1.000000E02, 1.135350E00
$$ 1.000000E02, 9.841500E-01
$$ 1.000000E02, 8.437500E-01
$$ 1.000000E02, 7.141500E-01
$$ 1.000000E02, 5.953500E-01
$$ 1.000000E02, 4.873500E-01
$$ 1.000000E02, 3.901500E-01
$$ 1.000000E02, 3.037500E-01
$$ 1.000000E02, 2.281500E-01
$$ 1.000000E02, 1.633500E-01
$$ 1.000000E02, 1.093500E-01
$$ 1.000000E02, 6.615000E-02
$$ 1.000000E02, 3.375000E-02
$$ 1.000000E02, 1.215000E-02
$$ 1.000000E02, 1.350000E-03
$$ 1.000000E02, 1.350000E-03
$$ 1.000000E02, 1.215000E-02
$$ 1.000000E02, 3.375000E-02
$$ 1.000000E02, 6.615000E-02
$$ 1.000000E02, 1.093500E-01
$$ 1.000000E02, 1.633500E-01
$$ 1.000000E02, 2.281500E-01
$$ 1.000000E02, 3.037500E-01
$$ 1.000000E02, 3.901500E-01
$$ 1.000000E02, 4.873500E-01
$$ 1.000000E02, 5.953500E-01
$$ 1.000000E02, 7.141500E-01
$$ 1.000000E02, 8.437500E-01
$$ 1.000000E02, 9.841500E-01
$$ 1.000000E02, 1.135350E00
$$ 1.000000E02, 1.297350E00
$$ 1.000000E02, 1.470150E00
$$ 1.000000E02, 1.653750E00
$$ 1.000000E02, 1.848150E00
$$ 1.000000E02, 2.053350E00
$$ 1.000000E02, 2.269350E00
$$ 1.000000E02, 2.496150E00
$$ 1.000000E02, 2.733750E00
$$ 1.000000E02, 2.982150E00
$$ 1.000000E02, 3.241350E00
$$ 1.000000E02, 3.511350E00
$$ 1.000000E02, 3.792150E00
$$ 1.000000E02, 4.083750E00
$$ 1.000000E02, 4.386150E00
$$ 1.000000E02, 4.699350E00
$$ 1.000000E02, 5.023350E00
$$ 1.000000E02, 5.358150E00
$$ 1.000000E02, 5.703750E00
$$ 1.000000E02, 6.060150E00
$$ 1.000000E02, 6.427350E00
$$ 1.000000E02, 6.805350E00
$$ 1.000000E02, 7.194150E00
$$ 1.000000E02, 7.593750E00
$$ 1.000000E02, 8.004150E00
$$ 1.000000E02, 8.425350E00
$$ 1.000000E02, 8.857350E00
$$ 1.000000E02, 9.300150E00
$$ 1.000000E02, 9.753750E00
$$ 1.000000E02, 1.021815E01
$$ 1.000000E02, 1.069335E01
$$ 1.000000E02, 1.117935E01
$$ 1.000000E02, 1.167615E01
$$ 1.000000E02, 1.218375E01
$$ 1.000000E02, 1.270215E01
$$ 1.000000E02, 1.323135E01
$$ 1.000000E02, 1.377135E01
$$ 1.000000E02, 1.432215E01
$$ 1.000000E02, 1.488375E01
$$ 1.000000E02, 1.545615E01
$$ 1.000000E02, 1.603935E01
$$ 1.000000E02, 1.663335E01
$$ 1.000000E02, 1.723815E01
$$ 1.000000E02, 1.785375E01
$$ 1.000000E02, 1.848015E01
$$ 1.000000E02, 1.911735E01
$$ 1.000000E02, 1.976535E01
$$ 1.000000E02, 2.042415E01
$$ 1.000000E02, 2.109375E01
$$ 1.000000E02, 2.177415E01
$$ 1.000000E02, 2.246535E01
$$ 1.000000E02, 2.316735E01
$$ 1.000000E02, 2.388015E01
$$ 1.000000E02, 2.460375E01
$$ 1.000000E02, 2.533815E01
$$ 1.000000E02, 2.608335E01
$$ 1.000000E02, 2.683935E01
$$ 1.000000E02, 2.760615E01
$$ 1.000000E02, 2.838375E01
$$ 1.000000E02, 2.917215E01
$$ 1.000000E02, 2.997135E01
$$ 1.000000E02, 3.078135E01
$$ 1.000000E02, 3.160215E01
$$ 1.000000E02, 3.243375E01
$$ 1.000000E02, 3.327615E01
$$ 1.000000E02, 3.412935E01
$$ 1.000000E02, 3.499335E01
$$ 1.000000E02, 3.586815E01
$$ 1.000000E02, 3.675375E01
$$ 1.000000E02, 3.765015E01
$$ 1.000000E02, 3.855735E01
$$ 1.000000E02, 3.947535E01
$$ 1.000000E02, 4.040415E01
$$ 1.000000E02, 4.134375E01
$$ 1.000000E02, 4.229415E01
$$ 1.000000E02, 4.325535E01
$$ 1.000000E02, 4.422735E01
$$ 1.000000E02, 4.521015E01
$$ 1.000000E02, 4.620375E01
$$ 1.000000E02, 4.720815E01
$$ 1.000000E02, 4.822335E01
$$ 1.000000E02, 4.924935E01
$$ 1.000000E02, 5.028615E01
$$ 1.000000E02, 5.133375E01
$$ 1.000000E02, 5.239215E01
$$ 1.000000E02, 5.346135E01
$$ 1.000000E02, 5.454135E01
$$ 1.000000E02, 5.563215E01
$$ 1.000000E02, 5.673375E01
$$ 1.000000E02, 5.784615E01
$$ 1.000000E02, 5.896935E01
$$ 1.000000E02, 6.010335E01
$$ 1.000000E02, 6.124815E01
$$ 1.000000E02, 6.240375E01
$$ 1.000000E02, 6.357015E01
$$ 1.000000E02, 6.474735E01
$$ 1.000000E02, 6.593535E01
$$ 1.000000E02, 6.713415E01
$$ 1.000000E02, 6.834375E01
$$ 1.000000E02, 6.956415E01
$$ 1.000000E02, 7.079535E01
$$ 1.000000E02, 7.203735E01
$$ 1.000000E02, 7.329015E01
$$ 1.000000E02, 7.455375E01
$$ 1.000000E02, 7.582815E01
$$ 1.000000E02, 7.711335E01
$$ 1.000000E02, 7.840935E01
$$ 1.000000E02, 7.971615E01
$$ 1.000000E02, 8.103375E01
$$ 1.000000E02, 8.236215E01
$$ 1.000000E02, 8.370135E01
$$ 1.000000E02, 8.505135E01
$$ 1.000000E02, 8.641215E01
$$ 1.000000E02, 8.778375E01
$$ 1.000000E02, 8.916615E01
$$ 1.000000E02, 9.055935E01
$$ 1.000000E02, 9.196335E01
$$ 1.000000E02, 9.337815E01
$$ 1.000000E02, 9.480375E01
$$ 1.000000E02, 9.624015E01
$$ 1.000000E02, 9.768735E01
$$ 1.000000E02, 9.914535E01
$$ 1.000000E02, 1.006141E02
$$ 1.000000E02, 1.020937E02
$$ 1.000000E02, 1.035842E02
$$ 1.000000E02, 1.050854E02
$$ 1.000000E02, 1.065974E02
$$ 1.000000E02, 1.081202E02
$$ 1.000000E02, 1.096538E02
$$ 1.000000E02, 1.111981E02
$$ 1.000000E02, 1.127534E02
$$ 1.000000E02, 1.143193E02
$$ 1.000000E02, 1.158961E02
$$ 1.000000E02, 1.174837E02
$$ 1.000000E02, 1.190822E02
$$ 1.000000E02, 1.206914E02
$$ 1.000000E02, 1.223114E02
$$ 1.000000E02, 1.239422E02
$$ 1.000000E02, 1.255838E02
$$ 1.000000E02, 1.272362E02
$$ 1.000000E02, 1.288993E02
$$ 1.000000E02, 1.305734E02
$$ 1.000000E02, 1.322581E02
$$ 1.000000E02, 1.339537E02
$$ 1.000000E02, 1.356602E02
$$ 1.000000E02, 1.373774E02
$$ 1.000000E02, 1.391054E02
$$ 1.000000E02, 1.408441E02
$$ 1.000000E02, 1.425938E02
$$ 1.000000E02, 1.443542E02
$$ 1.000000E02, 1.461253E02
$$ 1.000000E02, 1.479073E02
$$ 1.000000E02, 1.497001E02
$$ 1.000000E02, 1.515038E02
$$ 1.000000E02, 1.533182E02
$$ 1.000000E02, 1.551434E02
$$ 1.000000E02, 1.569794E02
$$ 1.000000E02, 1.588261E02
$$ 1.000000E02, 1.606838E02
$$ 1.000000E02, 1.625521E02
$$ 1.000000E02, 1.644313E02
$$ 1.000000E02, 1.663213E02
$$ 1.000000E02, 1.682221E02
$$ 1.000000E02, 1.701338E02
$$ 1.000000E02, 1.720562E02
$$ 1.000000E02, 1.739894E02
$$ 1.000000E02, 1.759334E02
$$ 1.000000E02, 1.778882E02
$$ 1.000000E02, 1.798538E02
$$ 1.000000E02, 1.818301E02
$$ 1.000000E02, 1.838173E02
$$ 1.000000E02, 1.858153E02
$$ 1.000000E02, 1.878241E02
$$ 1.000000E02, 1.898438E02
$$ 1.000000E02, 1.918742E02
$$ 1.000000E02, 1.939154E02
$$ 1.000000E02, 1.959673E02
$$ 1.000000E02, 1.980302E02
$$ 1.000000E02, 2.001038E02
$$ 1.000000E02, 2.021881E02
$$ 1.000000E02, 2.042833E02
$$ 1.000000E02, 2.063893E02
$$ 1.000000E02, 2.085061E02
$$ 1.000000E02, 2.106338E02
$$ 1.000000E02, 2.127722E02
$$ 1.000000E02, 2.149214E02
$$ 1.000000E02, 2.170814E02
$$ 1.000000E02, 2.192521E02
$$ 1.000000E02, 2.214338E02
$$ 1.000000E02, 2.236261E02
$$ 1.000000E02, 2.258293E02
$$ 1.000000E02, 2.280433E02
$$ 1.000000E02, 2.302681E02
$$ 1.000000E02, 2.325038E02
$$ 1.000000E02, 2.347502E02
$$ 1.000000E02, 2.370073E02
$$ 1.000000E02, 2.392753E02
$$ 1.000000E02, 2.415542E02
$$ 1.000000E02, 2.438437E02
$$ 1.000000E02, 2.461441E02
$$ 1.000000E02, 2.484553E02
$$ 1.000000E02, 2.507773E02
$$ 1.000000E02, 2.531101E02
$$ 1.000000E02, 2.554538E02
$$ 1.000000E02, 2.578082E02
$$ 1.000000E02, 2.601733E02
$$ 1.000000E02, 2.625494E02
$$ 1.000000E02, 2.649362E02
$$ 1.000000E02, 2.673337E02
$$ 1.000000E02, 2.697421E02
$$ 1.000000E02, 2.721613E02
$$ 1.000000E02, 2.745913E02
$$ 1.000000E02, 2.770322E02
$$ 1.000000E02, 2.794838E02
$$ 1.000000E02, 2.819462E02
$$ 1.000000E02, 2.844194E02
$$ 1.000000E02, 2.869034E02
$$ 1.000000E02, 2.893982E02
$$ 1.000000E02, 2.919038E02
$$ 1.000000E02, 2.944201E02
$$ 1.000000E02, 2.969473E02
$$ 1.000000E02, 2.994853E02
$$ 1.000000E02, 3.020342E02
$$ 1.000000E02, 3.045938E02
$$ 1.000000E02, 3.071642E02
$$ 1.000000E02, 3.097454E02
$$ 1.000000E02, 3.123374E02
$$ 1.000000E02, 3.149401E02
$$ 1.000000E02, 3.175538E02
$$ 1.000000E02, 3.201781E02
$$ 1.000000E02, 3.228133E02
$$ 1.000000E02, 3.254594E02
$$ 1.000000E02, 3.281161E02
$$ 1.000000E02, 3.307838E02
$$ 1.000000E02, 3.334621E02
$$ 1.000000E02, 3.361514E02
$$ 1.000000E02, 3.388513E02
$$ 1.000000E02, 3.415622E02
$$ 1.000000E02, 3.442838E02
$$ 1.000000E02, 3.470161E02
$$ 1.000000E02, 3.497594E02
$$ 1.000000E02, 3.525133E02
$$ 1.000000E02, 3.552782E02
$$ 1.000000E02, 3.580537E02
$$ 1.000000E02, 8.401500E-01
$$ 1.000000E02, 3.637350E00
$$ 1.000000E02, 6.445350E00
$$ 1.000000E02, 9.264150E00
$$ 1.000000E02, 1.209375E01
$$ 1.000000E02, 1.493415E01
$$ 1.000000E02, 1.778535E01
$$ 1.000000E02, 2.064735E01
$$ 1.000000E02, 2.352015E01
$$ 1.000000E02, 2.640375E01
$$ 1.000000E02, 2.929815E01
$$ 1.000000E02, 3.220335E01
$$ 1.000000E02, 3.511935E01
$$ 1.000000E02, 3.804615E01
$$ 1.000000E02, 4.098375E01
$$ 1.000000E02, 4.393215E01
$$ 1.000000E02, 4.689135E01
$$ 1.000000E02, 4.986135E01
$$ 1.000000E02, 5.284215E01
$$ 1.000000E02, 5.583375E01
$$ 1.000000E02, 5.883615E01
$$ 1.000000E02, 6.184935E01
$$ 1.000000E02, 6.487335E01
$$ 1.000000E02, 6.790815E01
$$ 1.000000E02, 7.095375E01
$$ 1.000000E02, 7.401015E01
$$ 1.000000E02, 7.707735E01
$$ 1.000000E02, 8.015535E01
$$ 1.000000E02, 8.324415E01
$$ 1.000000E02, 8.634375E01
$$ 1.000000E02, 8.945415E01
$$ 1.000000E02, 9.257535E01
$$ 1.000000E02, 9.570735E01
$$ 1.000000E02, 9.885015E01
$$ 1.000000E02, 1.020038E02
$$ 1.000000E02, 1.051681E02
$$ 1.000000E02, 1.083433E02
$$ 1.000000E02, 1.115293E02
$$ 1.000000E02, 1.147261E02
$$ 1.000000E02, 1.179337E02
$$ 1.000000E02, 1.211521E02
$$ 1.000000E02, 1.243813E02
$$ 1.000000E02, 1.276213E02
$$ 9.999688E01, 1.308721E02
$$ 9.998754E01, 1.341337E02
$$ 9.997196E01, 1.374062E02
$$ 9.995016E01, 1.406894E02
$$ 9.992213E01, 1.439833E02
$$ 9.988787E01, 1.472881E02
$$ 9.984739E01, 1.506038E02
$$ 9.980069E01, 1.539301E02
$$ 9.974776E01, 1.572673E02
$$ 9.968863E01, 1.606154E02
$$ 9.962328E01, 1.639742E02
$$ 9.955173E01, 1.673438E02
$$ 9.947397E01, 1.707241E02
$$ 9.939002E01, 1.741154E02
$$ 9.929987E01, 1.775173E02
$$ 9.920354E01, 1.809301E02
$$ 9.910102E01, 1.843537E02
$$ 9.899233E01, 1.877881E02
$$ 9.887747E01, 1.912333E02
$$ 9.875646E01, 1.946894E02
$$ 9.862928E01, 1.981562E02
$$ 9.849597E01, 2.016337E02
$$ 9.835651E01, 2.051222E02
$$ 9.821093E01, 2.086213E02
$$ 9.805923E01, 2.121314E02
$$ 9.790142E01, 2.156521E02
$$ 9.773751E01, 2.191837E02
$$ 9.756751E01, 2.227261E02
$$ 9.739143E01, 2.262794E02
$$ 9.720928E01, 2.298434E02
$$ 9.702108E01, 2.334181E02
$$ 9.682683E01, 2.370037E02
$$ 9.662655E01, 2.406001E02
$$ 9.642025E01, 2.442074E02
$$ 9.620794E01, 2.478253E02
$$ 9.598963E01, 2.514542E02
$$ 9.576535E01, 2.550937E02
$$ 9.553510E01, 2.587442E02
$$ 9.529889E01, 2.624053E02
$$ 9.505675E01, 2.660774E02
$$ 9.480868E01, 2.697602E02
$$ 9.455471E01, 2.734537E02
$$ 9.429485E01, 2.771582E02
$$ 9.402911E01, 2.808733E02
$$ 9.375751E01, 2.845993E02
$$ 9.348008E01, 2.883361E02
$$ 9.319681E01, 2.920838E02
$$ 9.290774E01, 2.958421E02
$$ 9.261288E01, 2.996114E02
$$ 9.231226E01, 3.033914E02
$$ 9.200588E01, 3.071822E02
$$ 9.169376E01, 3.109838E02
$$ 9.137594E01, 3.147962E02
$$ 9.105242E01, 3.186193E02
$$ 9.072323E01, 3.224533E02
$$ 9.038838E01, 3.262981E02
$$ 9.004790E01, 3.301537E02
$$ 8.970182E01, 3.340202E02
$$ 8.935014E01, 3.378973E02
$$ 8.899290E01, 3.417854E02
$$ 8.863011E01, 3.456842E02
$$ 8.826180E01, 3.495938E02
$$ 8.788799E01, 3.535142E02
$$ 8.750870E01, 3.574453E02
$$ 8.712396E01, 1.387350E00
$$ 8.673380E01, 5.340150E00
$$ 8.633823E01, 9.303750E00
$$ 8.593728E01, 1.327815E01
$$ 8.553097E01, 1.726335E01
$$ 8.511934E01, 2.125935E01
$$ 8.470240E01, 2.526615E01
$$ 8.428019E01, 2.928375E01
$$ 8.385272E01, 3.331215E01
$$ 8.342003E01, 3.735135E01
$$ 8.298215E01, 4.140135E01
$$ 8.253909E01, 4.546215E01
$$ 8.209089E01, 4.953375E01
$$ 8.163757E01, 5.361615E01
$$ 8.117917E01, 5.770935E01
$$ 8.071571E01, 6.181335E01
$$ 8.024722E01, 6.592815E01
$$ 7.977373E01, 7.005375E01
$$ 7.929527E01, 7.419015E01
$$ 7.881187E01, 7.833735E01
$$ 7.832356E01, 8.249535E01
$$ 7.783037E01, 8.666415E01
$$ 7.733233E01, 9.084375E01
$$ 7.682948E01, 9.503415E01
$$ 7.632183E01, 9.923535E01
$$ 7.580943E01, 1.034473E02
$$ 7.529231E01, 1.076701E02
$$ 7.477049E01, 1.119038E02
$$ 7.424402E01, 1.161481E02
$$ 7.371292E01, 1.204033E02
$$ 7.317723E01, 1.246693E02
$$ 7.263698E01, 1.289461E02
$$ 7.209220E01, 1.332337E02
$$ 7.154293E01, 1.375321E02
$$ 7.098920E01, 1.418414E02
$$ 7.043105E01, 1.461613E02
$$ 6.986851E01, 1.504922E02
$$ 6.930162E01, 1.548337E02
$$ 6.873041E01, 1.591862E02
$$ 6.815492E01, 1.635493E02
$$ 6.757518E01, 1.679233E02
$$ 6.699124E01, 1.723081E02
$$ 6.640311E01, 1.767037E02
$$ 6.581085E01, 1.811101E02
$$ 6.521449E01, 1.855274E02
$$ 6.461407E01, 1.899553E02
$$ 6.400962E01, 1.943941E02
$$ 6.340118E01, 1.988438E02
$$ 6.278880E01, 2.033041E02
$$ 6.217250E01, 2.077754E02
$$ 6.155232E01, 2.122573E02
$$ 6.092832E01, 2.167501E02
$$ 6.030051E01, 2.212537E02
$$ 5.966895E01, 2.257682E02
$$ 5.903367E01, 2.302934E02
$$ 5.839471E01, 2.348293E02
$$ 5.775212E01, 2.393761E02
$$ 5.710592E01, 2.439337E02
$$ 5.645617E01, 2.485021E02
$$ 5.580290E01, 2.530813E02
$$ 5.514615E01, 2.576713E02
$$ 5.448597E01, 2.622721E02
$$ 5.382239E01, 2.668837E02
$$ 5.315546E01, 2.715062E02
$$ 5.248522E01, 2.761393E02
$$ 5.181170E01, 2.807834E02
$$ 5.113496E01, 2.854381E02
$$ 5.045503E01, 2.901038E02
$$ 4.977196E01, 2.947801E02
$$ 4.908579E01, 2.994674E02
$$ 4.839656E01, 3.041653E02
$$ 4.770431E01, 3.088741E02
$$ 4.700910E01, 3.135937E02
$$ 4.631095E01, 3.183241E02
$$ 4.560992E01, 3.230654E02
$$ 4.490604E01, 3.278174E02
$$ 4.419937E01, 3.325802E02
$$ 4.348994E01, 3.373537E02
$$ 4.277781E01, 3.421382E02
$$ 4.206301E01, 3.469333E02
$$ 4.134558E01, 3.517394E02
$$ 4.062559E01, 3.565561E02
$$ 3.990306E01, 1.383750E00
$$ 3.917804E01, 6.222150E00
$$ 3.845058E01, 1.107135E01
$$ 3.772073E01, 1.593135E01
$$ 3.698853E01, 2.080215E01
$$ 3.625402E01, 2.568375E01
$$ 3.551726E01, 3.057615E01
$$ 3.477828E01, 3.547935E01
$$ 3.403713E01, 4.039335E01
$$ 3.329386E01, 4.531815E01
$$ 3.254852E01, 5.025375E01
$$ 3.180115E01, 5.520015E01
$$ 3.105180E01, 6.015735E01
$$ 3.030052E01, 6.512535E01
$$ 2.954734E01, 7.010415E01
$$ 2.879233E01, 7.509375E01
$$ 2.803552E01, 8.009415E01
$$ 2.727697E01, 8.510535E01
$$ 2.651671E01, 9.012735E01
$$ 2.575481E01, 9.516015E01
$$ 2.499130E01, 1.002037E02
$$ 2.422623E01, 1.052581E02
$$ 2.345965E01, 1.103233E02
$$ 2.269161E01, 1.153994E02
$$ 2.192216E01, 1.204861E02
$$ 2.115134E01, 1.255838E02
$$ 2.037920E01, 1.306921E02
$$ 1.960579E01, 1.358113E02
$$ 1.883117E01, 1.409413E02
$$ 1.805537E01, 1.460821E02
$$ 1.727844E01, 1.512337E02
$$ 1.650044E01, 1.563961E02
$$ 1.572140E01, 1.615694E02
$$ 1.494139E01, 1.667533E02
$$ 1.416045E01, 1.719481E02
$$ 1.337863E01, 1.771537E02
$$ 1.259597E01, 1.823701E02
$$ 1.181253E01, 1.875973E02
$$ 1.102835E01, 1.928353E02
$$ 1.024348E01, 1.980841E02
$$ 9.457981E00, 2.033437E02
$$ 8.671888E00, 2.086142E02
$$ 7.885255E00, 2.138954E02
$$ 7.098130E00, 2.191873E02
$$ 6.310563E00, 2.244901E02
$$ 5.522603E00, 2.298037E02
$$ 4.734299E00, 2.351282E02
$$ 3.945700E00, 2.404633E02
$$ 3.156855E00, 2.458093E02
$$ 2.367813E00, 2.511662E02
$$ 1.578624E00, 2.565338E02
$$ 7.893367E-01, 2.619122E02
$$ 0.000000E00, 2.673013E02
$$ ##END
##$RELAX= 
##$BRUKER FILE EXP=spnam14
$$ ##TITLE= sm. Chirp: 42kHz, 1.5ms
$$ ##JCAMP-DX= 5.00 Bruker JCAMP library
$$ ##DATA TYPE= Shape Data
$$ ##ORIGIN= Bruker BioSpin GmbH
$$ ##OWNER= <demo>
$$ ##DATE= 2010/01/21
$$ ##TIME= 18:37:35
$$ ##$SHAPE_PARAMETERS= Type: SmoothedChirp ; Total Sweep-Width [Hz] 42000.0 ; Length of Pulse [usec] 1500.0 ; % to be smoothed 20.0 ; 1=High to low field, -1=Low to high field -1.0 ; smoothing 0.0
$$ ##MINX= 0.000000E00
$$ ##MAXX= 1.000000E02
$$ ##MINY= 7.087500E-04
$$ ##MAXY= 3.592055E02
$$ ##$SHAPE_EXMODE= Adiabatic
$$ ##$SHAPE_TOTROT= 1.800000E02
$$ ##$SHAPE_TYPE= Inversion
$$ ##$SHAPE_USER_DEF= 
$$ ##$SHAPE_REPHFAC= 
$$ ##$SHAPE_BWFAC= 4.974000E01
$$ ##$SHAPE_BWFAC50= 
$$ ##$SHAPE_INTEGFAC= 9.116510E-02
$$ ##$SHAPE_MODE= 0
$$ ##NPOINTS= 2000
$$ ##XYPOINTS= (XY..XY)
$$ 0.000000E00, 3.121657E02
$$ 3.936823E-01, 3.065014E02
$$ 7.873584E-01, 3.008427E02
$$ 1.181022E00, 2.951897E02
$$ 1.574668E00, 2.895424E02
$$ 1.968289E00, 2.839008E02
$$ 2.361880E00, 2.782648E02
$$ 2.755434E00, 2.726345E02
$$ 3.148946E00, 2.670098E02
$$ 3.542408E00, 2.613909E02
$$ 3.935816E00, 2.557776E02
$$ 4.329163E00, 2.501699E02
$$ 4.722442E00, 2.445680E02
$$ 5.115649E00, 2.389717E02
$$ 5.508776E00, 2.333811E02
$$ 5.901818E00, 2.277961E02
$$ 6.294768E00, 2.222168E02
$$ 6.687621E00, 2.166432E02
$$ 7.080370E00, 2.110753E02
$$ 7.473009E00, 2.055130E02
$$ 7.865533E00, 1.999564E02
$$ 8.257935E00, 1.944055E02
$$ 8.650208E00, 1.888602E02
$$ 9.042348E00, 1.833206E02
$$ 9.434347E00, 1.777867E02
$$ 9.826200E00, 1.722585E02
$$ 1.021790E01, 1.667359E02
$$ 1.060944E01, 1.612190E02
$$ 1.100082E01, 1.557077E02
$$ 1.139203E01, 1.502022E02
$$ 1.178306E01, 1.447023E02
$$ 1.217391E01, 1.392080E02
$$ 1.256457E01, 1.337195E02
$$ 1.295503E01, 1.282366E02
$$ 1.334530E01, 1.227594E02
$$ 1.373536E01, 1.172878E02
$$ 1.412520E01, 1.118219E02
$$ 1.451483E01, 1.063617E02
$$ 1.490423E01, 1.009072E02
$$ 1.529340E01, 9.545831E01
$$ 1.568233E01, 9.001511E01
$$ 1.607102E01, 8.457758E01
$$ 1.645946E01, 7.914572E01
$$ 1.684764E01, 7.371953E01
$$ 1.723557E01, 6.829901E01
$$ 1.762323E01, 6.288416E01
$$ 1.801061E01, 5.747498E01
$$ 1.839771E01, 5.207147E01
$$ 1.878453E01, 4.667363E01
$$ 1.917106E01, 4.128146E01
$$ 1.955729E01, 3.589496E01
$$ 1.994322E01, 3.051413E01
$$ 2.032884E01, 2.513897E01
$$ 2.071415E01, 1.976948E01
$$ 2.109913E01, 1.440566E01
$$ 2.148379E01, 9.047509E00
$$ 2.186811E01, 3.695029E00
$$ 2.225209E01, 3.583482E02
$$ 2.263573E01, 3.530071E02
$$ 2.301902E01, 3.476716E02
$$ 2.340195E01, 3.423418E02
$$ 2.378452E01, 3.370177E02
$$ 2.416672E01, 3.316992E02
$$ 2.454855E01, 3.263864E02
$$ 2.492999E01, 3.210793E02
$$ 2.531105E01, 3.157779E02
$$ 2.569172E01, 3.104821E02
$$ 2.607199E01, 3.051920E02
$$ 2.645185E01, 2.999075E02
$$ 2.683131E01, 2.946288E02
$$ 2.721035E01, 2.893557E02
$$ 2.758896E01, 2.840882E02
$$ 2.796715E01, 2.788265E02
$$ 2.834491E01, 2.735704E02
$$ 2.872223E01, 2.683200E02
$$ 2.909910E01, 2.630752E02
$$ 2.947552E01, 2.578361E02
$$ 2.985148E01, 2.526027E02
$$ 3.022698E01, 2.473750E02
$$ 3.060201E01, 2.421529E02
$$ 3.097657E01, 2.369365E02
$$ 3.135065E01, 2.317258E02
$$ 3.172424E01, 2.265207E02
$$ 3.209734E01, 2.213213E02
$$ 3.246995E01, 2.161276E02
$$ 3.284205E01, 2.109396E02
$$ 3.321364E01, 2.057572E02
$$ 3.358471E01, 2.005805E02
$$ 3.395527E01, 1.954094E02
$$ 3.432530E01, 1.902441E02
$$ 3.469480E01, 1.850844E02
$$ 3.506376E01, 1.799303E02
$$ 3.543217E01, 1.747820E02
$$ 3.580004E01, 1.696393E02
$$ 3.616735E01, 1.645023E02
$$ 3.653410E01, 1.593709E02
$$ 3.690029E01, 1.542452E02
$$ 3.726590E01, 1.491252E02
$$ 3.763094E01, 1.440109E02
$$ 3.799539E01, 1.389022E02
$$ 3.835925E01, 1.337992E02
$$ 3.872252E01, 1.287019E02
$$ 3.908519E01, 1.236102E02
$$ 3.944726E01, 1.185242E02
$$ 3.980871E01, 1.134439E02
$$ 4.016954E01, 1.083693E02
$$ 4.052975E01, 1.033003E02
$$ 4.088934E01, 9.823697E01
$$ 4.124829E01, 9.317933E01
$$ 4.160660E01, 8.812736E01
$$ 4.196427E01, 8.308106E01
$$ 4.232128E01, 7.804043E01
$$ 4.267764E01, 7.300547E01
$$ 4.303334E01, 6.797618E01
$$ 4.338837E01, 6.295256E01
$$ 4.374273E01, 5.793461E01
$$ 4.409641E01, 5.292233E01
$$ 4.444941E01, 4.791572E01
$$ 4.480172E01, 4.291478E01
$$ 4.515334E01, 3.791951E01
$$ 4.550425E01, 3.292991E01
$$ 4.585446E01, 2.794598E01
$$ 4.620396E01, 2.296772E01
$$ 4.655274E01, 1.799513E01
$$ 4.690080E01, 1.302821E01
$$ 4.724814E01, 8.066959E00
$$ 4.759474E01, 3.111379E00
$$ 4.794060E01, 3.581615E02
$$ 4.828573E01, 3.532172E02
$$ 4.863010E01, 3.482787E02
$$ 4.897372E01, 3.433458E02
$$ 4.931658E01, 3.384185E02
$$ 4.965867E01, 3.334970E02
$$ 5.000000E01, 3.285811E02
$$ 5.034055E01, 3.236709E02
$$ 5.068032E01, 3.187663E02
$$ 5.101931E01, 3.138674E02
$$ 5.135750E01, 3.089742E02
$$ 5.169490E01, 3.040867E02
$$ 5.203150E01, 2.992048E02
$$ 5.236729E01, 2.943286E02
$$ 5.270227E01, 2.894581E02
$$ 5.303643E01, 2.845932E02
$$ 5.336978E01, 2.797340E02
$$ 5.370229E01, 2.748805E02
$$ 5.403397E01, 2.700327E02
$$ 5.436481E01, 2.651905E02
$$ 5.469482E01, 2.603540E02
$$ 5.502397E01, 2.555231E02
$$ 5.535227E01, 2.506980E02
$$ 5.567971E01, 2.458785E02
$$ 5.600629E01, 2.410646E02
$$ 5.633201E01, 2.362565E02
$$ 5.665684E01, 2.314540E02
$$ 5.698081E01, 2.266572E02
$$ 5.730388E01, 2.218660E02
$$ 5.762607E01, 2.170805E02
$$ 5.794737E01, 2.123007E02
$$ 5.826777E01, 2.075266E02
$$ 5.858726E01, 2.027581E02
$$ 5.890585E01, 1.979953E02
$$ 5.922353E01, 1.932382E02
$$ 5.954028E01, 1.884867E02
$$ 5.985612E01, 1.837409E02
$$ 6.017102E01, 1.790008E02
$$ 6.048499E01, 1.742664E02
$$ 6.079803E01, 1.695376E02
$$ 6.111012E01, 1.648145E02
$$ 6.142127E01, 1.600970E02
$$ 6.173147E01, 1.553853E02
$$ 6.204070E01, 1.506792E02
$$ 6.234898E01, 1.459787E02
$$ 6.265629E01, 1.412840E02
$$ 6.296263E01, 1.365949E02
$$ 6.326799E01, 1.319115E02
$$ 6.357237E01, 1.272337E02
$$ 6.387577E01, 1.225616E02
$$ 6.417818E01, 1.178952E02
$$ 6.447959E01, 1.132345E02
$$ 6.478001E01, 1.085794E02
$$ 6.507941E01, 1.039300E02
$$ 6.537782E01, 9.928628E01
$$ 6.567520E01, 9.464822E01
$$ 6.597157E01, 9.001583E01
$$ 6.626692E01, 8.538911E01
$$ 6.656124E01, 8.076806E01
$$ 6.685453E01, 7.615268E01
$$ 6.714678E01, 7.154297E01
$$ 6.743799E01, 6.693893E01
$$ 6.772816E01, 6.234056E01
$$ 6.801727E01, 5.774786E01
$$ 6.830534E01, 5.316083E01
$$ 6.859234E01, 4.857947E01
$$ 6.887828E01, 4.400378E01
$$ 6.916315E01, 3.943376E01
$$ 6.944696E01, 3.486941E01
$$ 6.972968E01, 3.031073E01
$$ 7.001132E01, 2.575772E01
$$ 7.029188E01, 2.121038E01
$$ 7.057135E01, 1.666871E01
$$ 7.084973E01, 1.213271E01
$$ 7.112701E01, 7.602379E00
$$ 7.140318E01, 3.077719E00
$$ 7.167825E01, 3.585587E02
$$ 7.195221E01, 3.540454E02
$$ 7.222505E01, 3.495378E02
$$ 7.249678E01, 3.450358E02
$$ 7.276738E01, 3.405395E02
$$ 7.303685E01, 3.360488E02
$$ 7.330519E01, 3.315639E02
$$ 7.357239E01, 3.270846E02
$$ 7.383845E01, 3.226109E02
$$ 7.410337E01, 3.181430E02
$$ 7.436714E01, 3.136807E02
$$ 7.462976E01, 3.092241E02
$$ 7.489122E01, 3.047731E02
$$ 7.515152E01, 3.003278E02
$$ 7.541066E01, 2.958882E02
$$ 7.566863E01, 2.914543E02
$$ 7.592542E01, 2.870260E02
$$ 7.618104E01, 2.826034E02
$$ 7.643548E01, 2.781865E02
$$ 7.668873E01, 2.737752E02
$$ 7.694079E01, 2.693696E02
$$ 7.719167E01, 2.649697E02
$$ 7.744134E01, 2.605755E02
$$ 7.768981E01, 2.561869E02
$$ 7.793709E01, 2.518040E02
$$ 7.818315E01, 2.474267E02
$$ 7.842800E01, 2.430552E02
$$ 7.867163E01, 2.386893E02
$$ 7.891405E01, 2.343290E02
$$ 7.915524E01, 2.299745E02
$$ 7.939521E01, 2.256256E02
$$ 7.963395E01, 2.212824E02
$$ 7.987145E01, 2.169448E02
$$ 8.010771E01, 2.126129E02
$$ 8.034273E01, 2.082867E02
$$ 8.057651E01, 2.039662E02
$$ 8.080904E01, 1.996513E02
$$ 8.104031E01, 1.953421E02
$$ 8.127033E01, 1.910386E02
$$ 8.149909E01, 1.867407E02
$$ 8.172659E01, 1.824485E02
$$ 8.195282E01, 1.781620E02
$$ 8.217778E01, 1.738812E02
$$ 8.240147E01, 1.696060E02
$$ 8.262388E01, 1.653365E02
$$ 8.284501E01, 1.610726E02
$$ 8.306485E01, 1.568145E02
$$ 8.328341E01, 1.525620E02
$$ 8.350068E01, 1.483151E02
$$ 8.371665E01, 1.440740E02
$$ 8.393132E01, 1.398385E02
$$ 8.414470E01, 1.356087E02
$$ 8.435677E01, 1.313845E02
$$ 8.456753E01, 1.271660E02
$$ 8.477698E01, 1.229532E02
$$ 8.498512E01, 1.187461E02
$$ 8.519194E01, 1.145446E02
$$ 8.539744E01, 1.103488E02
$$ 8.560162E01, 1.061587E02
$$ 8.580447E01, 1.019742E02
$$ 8.600599E01, 9.779543E01
$$ 8.620618E01, 9.362231E01
$$ 8.640503E01, 8.945486E01
$$ 8.660254E01, 8.529308E01
$$ 8.679871E01, 8.113697E01
$$ 8.699354E01, 7.698653E01
$$ 8.718701E01, 7.284176E01
$$ 8.737914E01, 6.870266E01
$$ 8.756991E01, 6.456923E01
$$ 8.775932E01, 6.044147E01
$$ 8.794738E01, 5.631938E01
$$ 8.813407E01, 5.220296E01
$$ 8.831939E01, 4.809221E01
$$ 8.850335E01, 4.398713E01
$$ 8.868593E01, 3.988772E01
$$ 8.886714E01, 3.579398E01
$$ 8.904697E01, 3.170591E01
$$ 8.922542E01, 2.762351E01
$$ 8.940249E01, 2.354678E01
$$ 8.957818E01, 1.947572E01
$$ 8.975247E01, 1.541033E01
$$ 8.992538E01, 1.135061E01
$$ 9.009689E01, 7.296559E00
$$ 9.026700E01, 3.248179E00
$$ 9.043572E01, 3.592055E02
$$ 9.060303E01, 3.551684E02
$$ 9.076894E01, 3.511371E02
$$ 9.093344E01, 3.471114E02
$$ 9.109653E01, 3.430913E02
$$ 9.125822E01, 3.390770E02
$$ 9.141848E01, 3.350683E02
$$ 9.157733E01, 3.310653E02
$$ 9.173476E01, 3.270679E02
$$ 9.189077E01, 3.230762E02
$$ 9.204536E01, 3.190902E02
$$ 9.219852E01, 3.151099E02
$$ 9.235024E01, 3.111352E02
$$ 9.250054E01, 3.071662E02
$$ 9.264941E01, 3.032029E02
$$ 9.279684E01, 2.992452E02
$$ 9.294283E01, 2.952932E02
$$ 9.308737E01, 2.913469E02
$$ 9.323048E01, 2.874063E02
$$ 9.337214E01, 2.834713E02
$$ 9.351236E01, 2.795420E02
$$ 9.365112E01, 2.756183E02
$$ 9.378844E01, 2.717004E02
$$ 9.392430E01, 2.677881E02
$$ 9.405870E01, 2.638814E02
$$ 9.419165E01, 2.599805E02
$$ 9.432314E01, 2.560852E02
$$ 9.445316E01, 2.521956E02
$$ 9.458172E01, 2.483116E02
$$ 9.470882E01, 2.444333E02
$$ 9.483445E01, 2.405607E02
$$ 9.495861E01, 2.366938E02
$$ 9.508129E01, 2.328325E02
$$ 9.520250E01, 2.289769E02
$$ 9.532224E01, 2.251270E02
$$ 9.544050E01, 2.212827E02
$$ 9.555728E01, 2.174441E02
$$ 9.567258E01, 2.136112E02
$$ 9.578640E01, 2.097840E02
$$ 9.589873E01, 2.059624E02
$$ 9.600957E01, 2.021465E02
$$ 9.611893E01, 1.983362E02
$$ 9.622680E01, 1.945317E02
$$ 9.633318E01, 1.907328E02
$$ 9.643806E01, 1.869395E02
$$ 9.654145E01, 1.831520E02
$$ 9.664334E01, 1.793701E02
$$ 9.674374E01, 1.755939E02
$$ 9.684263E01, 1.718233E02
$$ 9.694003E01, 1.680584E02
$$ 9.703592E01, 1.642992E02
$$ 9.713031E01, 1.605457E02
$$ 9.722319E01, 1.567978E02
$$ 9.731457E01, 1.530556E02
$$ 9.740443E01, 1.493191E02
$$ 9.749279E01, 1.455882E02
$$ 9.757964E01, 1.418630E02
$$ 9.766497E01, 1.381435E02
$$ 9.774879E01, 1.344297E02
$$ 9.783110E01, 1.307215E02
$$ 9.791189E01, 1.270190E02
$$ 9.799116E01, 1.233221E02
$$ 9.806892E01, 1.196310E02
$$ 9.814515E01, 1.159455E02
$$ 9.821986E01, 1.122656E02
$$ 9.829305E01, 1.085915E02
$$ 9.836472E01, 1.049230E02
$$ 9.843486E01, 1.012602E02
$$ 9.850348E01, 9.760301E01
$$ 9.857057E01, 9.395153E01
$$ 9.863613E01, 9.030572E01
$$ 9.870016E01, 8.666558E01
$$ 9.876267E01, 8.303111E01
$$ 9.882364E01, 7.940231E01
$$ 9.888308E01, 7.577918E01
$$ 9.894099E01, 7.216172E01
$$ 9.899737E01, 6.854993E01
$$ 9.905221E01, 6.494381E01
$$ 9.910551E01, 6.134336E01
$$ 9.915728E01, 5.774858E01
$$ 9.920752E01, 5.415947E01
$$ 9.925621E01, 5.057603E01
$$ 9.930337E01, 4.699826E01
$$ 9.934899E01, 4.342616E01
$$ 9.939307E01, 3.985973E01
$$ 9.943561E01, 3.629897E01
$$ 9.947660E01, 3.274388E01
$$ 9.951606E01, 2.919446E01
$$ 9.955397E01, 2.565071E01
$$ 9.959034E01, 2.211263E01
$$ 9.962517E01, 1.858022E01
$$ 9.965845E01, 1.505348E01
$$ 9.969019E01, 1.153241E01
$$ 9.972038E01, 8.017009E00
$$ 9.974903E01, 4.507279E00
$$ 9.977613E01, 1.003219E00
$$ 9.980168E01, 3.575048E02
$$ 9.982569E01, 3.540121E02
$$ 9.984815E01, 3.505251E02
$$ 9.986906E01, 3.470437E02
$$ 9.988843E01, 3.435680E02
$$ 9.990625E01, 3.400979E02
$$ 9.992252E01, 3.366336E02
$$ 9.993724E01, 3.331749E02
$$ 9.995041E01, 3.297218E02
$$ 9.996203E01, 3.262745E02
$$ 9.997210E01, 3.228328E02
$$ 9.998063E01, 3.193968E02
$$ 9.998760E01, 3.159664E02
$$ 9.999303E01, 3.125417E02
$$ 9.999690E01, 3.091227E02
$$ 9.999923E01, 3.057094E02
$$ 1.000000E02, 3.023017E02
$$ 1.000000E02, 2.988997E02
$$ 1.000000E02, 2.955034E02
$$ 1.000000E02, 2.921127E02
$$ 1.000000E02, 2.887277E02
$$ 1.000000E02, 2.853484E02
$$ 1.000000E02, 2.819748E02
$$ 1.000000E02, 2.786068E02
$$ 1.000000E02, 2.752445E02
$$ 1.000000E02, 2.718878E02
$$ 1.000000E02, 2.685369E02
$$ 1.000000E02, 2.651916E02
$$ 1.000000E02, 2.618519E02
$$ 1.000000E02, 2.585180E02
$$ 1.000000E02, 2.551897E02
$$ 1.000000E02, 2.518671E02
$$ 1.000000E02, 2.485501E02
$$ 1.000000E02, 2.452388E02
$$ 1.000000E02, 2.419332E02
$$ 1.000000E02, 2.386333E02
$$ 1.000000E02, 2.353390E02
$$ 1.000000E02, 2.320504E02
$$ 1.000000E02, 2.287675E02
$$ 1.000000E02, 2.254902E02
$$ 1.000000E02, 2.222186E02
$$ 1.000000E02, 2.189527E02
$$ 1.000000E02, 2.156925E02
$$ 1.000000E02, 2.124379E02
$$ 1.000000E02, 2.091890E02
$$ 1.000000E02, 2.059457E02
$$ 1.000000E02, 2.027082E02
$$ 1.000000E02, 1.994763E02
$$ 1.000000E02, 1.962500E02
$$ 1.000000E02, 1.930295E02
$$ 1.000000E02, 1.898146E02
$$ 1.000000E02, 1.866054E02
$$ 1.000000E02, 1.834018E02
$$ 1.000000E02, 1.802039E02
$$ 1.000000E02, 1.770117E02
$$ 1.000000E02, 1.738252E02
$$ 1.000000E02, 1.706443E02
$$ 1.000000E02, 1.674691E02
$$ 1.000000E02, 1.642996E02
$$ 1.000000E02, 1.611357E02
$$ 1.000000E02, 1.579775E02
$$ 1.000000E02, 1.548250E02
$$ 1.000000E02, 1.516782E02
$$ 1.000000E02, 1.485370E02
$$ 1.000000E02, 1.454015E02
$$ 1.000000E02, 1.422716E02
$$ 1.000000E02, 1.391475E02
$$ 1.000000E02, 1.360290E02
$$ 1.000000E02, 1.329161E02
$$ 1.000000E02, 1.298090E02
$$ 1.000000E02, 1.267075E02
$$ 1.000000E02, 1.236117E02
$$ 1.000000E02, 1.205215E02
$$ 1.000000E02, 1.174370E02
$$ 1.000000E02, 1.143582E02
$$ 1.000000E02, 1.112851E02
$$ 1.000000E02, 1.082176E02
$$ 1.000000E02, 1.051558E02
$$ 1.000000E02, 1.020997E02
$$ 1.000000E02, 9.904922E01
$$ 1.000000E02, 9.600443E01
$$ 1.000000E02, 9.296531E01
$$ 1.000000E02, 8.993186E01
$$ 1.000000E02, 8.690408E01
$$ 1.000000E02, 8.388197E01
$$ 1.000000E02, 8.086553E01
$$ 1.000000E02, 7.785476E01
$$ 1.000000E02, 7.484966E01
$$ 1.000000E02, 7.185023E01
$$ 1.000000E02, 6.885647E01
$$ 1.000000E02, 6.586838E01
$$ 1.000000E02, 6.288596E01
$$ 1.000000E02, 5.990921E01
$$ 1.000000E02, 5.693813E01
$$ 1.000000E02, 5.397272E01
$$ 1.000000E02, 5.101298E01
$$ 1.000000E02, 4.805891E01
$$ 1.000000E02, 4.511051E01
$$ 1.000000E02, 4.216778E01
$$ 1.000000E02, 3.923072E01
$$ 1.000000E02, 3.629933E01
$$ 1.000000E02, 3.337361E01
$$ 1.000000E02, 3.045356E01
$$ 1.000000E02, 2.753918E01
$$ 1.000000E02, 2.463047E01
$$ 1.000000E02, 2.172743E01
$$ 1.000000E02, 1.883006E01
$$ 1.000000E02, 1.593836E01
$$ 1.000000E02, 1.305233E01
$$ 1.000000E02, 1.017197E01
$$ 1.000000E02, 7.297279E00
$$ 1.000000E02, 4.428259E00
$$ 1.000000E02, 1.564909E00
$$ 1.000000E02, 3.587072E02
$$ 1.000000E02, 3.558552E02
$$ 1.000000E02, 3.530089E02
$$ 1.000000E02, 3.501682E02
$$ 1.000000E02, 3.473332E02
$$ 1.000000E02, 3.445039E02
$$ 1.000000E02, 3.416802E02
$$ 1.000000E02, 3.388622E02
$$ 1.000000E02, 3.360499E02
$$ 1.000000E02, 3.332433E02
$$ 1.000000E02, 3.304423E02
$$ 1.000000E02, 3.276470E02
$$ 1.000000E02, 3.248573E02
$$ 1.000000E02, 3.220734E02
$$ 1.000000E02, 3.192951E02
$$ 1.000000E02, 3.165224E02
$$ 1.000000E02, 3.137555E02
$$ 1.000000E02, 3.109942E02
$$ 1.000000E02, 3.082386E02
$$ 1.000000E02, 3.054886E02
$$ 1.000000E02, 3.027443E02
$$ 1.000000E02, 3.000057E02
$$ 1.000000E02, 2.972728E02
$$ 1.000000E02, 2.945455E02
$$ 1.000000E02, 2.918239E02
$$ 1.000000E02, 2.891080E02
$$ 1.000000E02, 2.863977E02
$$ 1.000000E02, 2.836931E02
$$ 1.000000E02, 2.809942E02
$$ 1.000000E02, 2.783010E02
$$ 1.000000E02, 2.756134E02
$$ 1.000000E02, 2.729315E02
$$ 1.000000E02, 2.702552E02
$$ 1.000000E02, 2.675847E02
$$ 1.000000E02, 2.649198E02
$$ 1.000000E02, 2.622605E02
$$ 1.000000E02, 2.596070E02
$$ 1.000000E02, 2.569591E02
$$ 1.000000E02, 2.543169E02
$$ 1.000000E02, 2.516803E02
$$ 1.000000E02, 2.490494E02
$$ 1.000000E02, 2.464242E02
$$ 1.000000E02, 2.438047E02
$$ 1.000000E02, 2.411908E02
$$ 1.000000E02, 2.385826E02
$$ 1.000000E02, 2.359801E02
$$ 1.000000E02, 2.333832E02
$$ 1.000000E02, 2.307920E02
$$ 1.000000E02, 2.282065E02
$$ 1.000000E02, 2.256267E02
$$ 1.000000E02, 2.230525E02
$$ 1.000000E02, 2.204840E02
$$ 1.000000E02, 2.179211E02
$$ 1.000000E02, 2.153640E02
$$ 1.000000E02, 2.128125E02
$$ 1.000000E02, 2.102666E02
$$ 1.000000E02, 2.077265E02
$$ 1.000000E02, 2.051920E02
$$ 1.000000E02, 2.026632E02
$$ 1.000000E02, 2.001400E02
$$ 1.000000E02, 1.976225E02
$$ 1.000000E02, 1.951107E02
$$ 1.000000E02, 1.926046E02
$$ 1.000000E02, 1.901041E02
$$ 1.000000E02, 1.876093E02
$$ 1.000000E02, 1.851202E02
$$ 1.000000E02, 1.826367E02
$$ 1.000000E02, 1.801589E02
$$ 1.000000E02, 1.776868E02
$$ 1.000000E02, 1.752204E02
$$ 1.000000E02, 1.727596E02
$$ 1.000000E02, 1.703045E02
$$ 1.000000E02, 1.678550E02
$$ 1.000000E02, 1.654113E02
$$ 1.000000E02, 1.629732E02
$$ 1.000000E02, 1.605407E02
$$ 1.000000E02, 1.581140E02
$$ 1.000000E02, 1.556929E02
$$ 1.000000E02, 1.532775E02
$$ 1.000000E02, 1.508677E02
$$ 1.000000E02, 1.484636E02
$$ 1.000000E02, 1.460652E02
$$ 1.000000E02, 1.436725E02
$$ 1.000000E02, 1.412854E02
$$ 1.000000E02, 1.389040E02
$$ 1.000000E02, 1.365283E02
$$ 1.000000E02, 1.341582E02
$$ 1.000000E02, 1.317938E02
$$ 1.000000E02, 1.294351E02
$$ 1.000000E02, 1.270821E02
$$ 1.000000E02, 1.247347E02
$$ 1.000000E02, 1.223930E02
$$ 1.000000E02, 1.200569E02
$$ 1.000000E02, 1.177266E02
$$ 1.000000E02, 1.154019E02
$$ 1.000000E02, 1.130828E02
$$ 1.000000E02, 1.107695E02
$$ 1.000000E02, 1.084618E02
$$ 1.000000E02, 1.061598E02
$$ 1.000000E02, 1.038634E02
$$ 1.000000E02, 1.015727E02
$$ 1.000000E02, 9.928772E01
$$ 1.000000E02, 9.700838E01
$$ 1.000000E02, 9.473471E01
$$ 1.000000E02, 9.246671E01
$$ 1.000000E02, 9.020438E01
$$ 1.000000E02, 8.794772E01
$$ 1.000000E02, 8.569673E01
$$ 1.000000E02, 8.345141E01
$$ 1.000000E02, 8.121176E01
$$ 1.000000E02, 7.897778E01
$$ 1.000000E02, 7.674947E01
$$ 1.000000E02, 7.452683E01
$$ 1.000000E02, 7.230986E01
$$ 1.000000E02, 7.009856E01
$$ 1.000000E02, 6.789293E01
$$ 1.000000E02, 6.569297E01
$$ 1.000000E02, 6.349868E01
$$ 1.000000E02, 6.131006E01
$$ 1.000000E02, 5.912711E01
$$ 1.000000E02, 5.694983E01
$$ 1.000000E02, 5.477822E01
$$ 1.000000E02, 5.261228E01
$$ 1.000000E02, 5.045201E01
$$ 1.000000E02, 4.829741E01
$$ 1.000000E02, 4.614848E01
$$ 1.000000E02, 4.400522E01
$$ 1.000000E02, 4.186763E01
$$ 1.000000E02, 3.973571E01
$$ 1.000000E02, 3.760946E01
$$ 1.000000E02, 3.548888E01
$$ 1.000000E02, 3.337397E01
$$ 1.000000E02, 3.126473E01
$$ 1.000000E02, 2.916116E01
$$ 1.000000E02, 2.706326E01
$$ 1.000000E02, 2.497103E01
$$ 1.000000E02, 2.288447E01
$$ 1.000000E02, 2.080358E01
$$ 1.000000E02, 1.872836E01
$$ 1.000000E02, 1.665881E01
$$ 1.000000E02, 1.459493E01
$$ 1.000000E02, 1.253672E01
$$ 1.000000E02, 1.048418E01
$$ 1.000000E02, 8.437309E00
$$ 1.000000E02, 6.396109E00
$$ 1.000000E02, 4.360579E00
$$ 1.000000E02, 2.330719E00
$$ 1.000000E02, 3.065287E-01
$$ 1.000000E02, 3.582880E02
$$ 1.000000E02, 3.562752E02
$$ 1.000000E02, 3.542680E02
$$ 1.000000E02, 3.522665E02
$$ 1.000000E02, 3.502706E02
$$ 1.000000E02, 3.482805E02
$$ 1.000000E02, 3.462960E02
$$ 1.000000E02, 3.443171E02
$$ 1.000000E02, 3.423440E02
$$ 1.000000E02, 3.403765E02
$$ 1.000000E02, 3.384147E02
$$ 1.000000E02, 3.364585E02
$$ 1.000000E02, 3.345080E02
$$ 1.000000E02, 3.325632E02
$$ 1.000000E02, 3.306241E02
$$ 1.000000E02, 3.286906E02
$$ 1.000000E02, 3.267628E02
$$ 1.000000E02, 3.248407E02
$$ 1.000000E02, 3.229242E02
$$ 1.000000E02, 3.210134E02
$$ 1.000000E02, 3.191083E02
$$ 1.000000E02, 3.172089E02
$$ 1.000000E02, 3.153151E02
$$ 1.000000E02, 3.134270E02
$$ 1.000000E02, 3.115445E02
$$ 1.000000E02, 3.096678E02
$$ 1.000000E02, 3.077967E02
$$ 1.000000E02, 3.059312E02
$$ 1.000000E02, 3.040715E02
$$ 1.000000E02, 3.022174E02
$$ 1.000000E02, 3.003690E02
$$ 1.000000E02, 2.985262E02
$$ 1.000000E02, 2.966891E02
$$ 1.000000E02, 2.948577E02
$$ 1.000000E02, 2.930320E02
$$ 1.000000E02, 2.912119E02
$$ 1.000000E02, 2.893975E02
$$ 1.000000E02, 2.875888E02
$$ 1.000000E02, 2.857857E02
$$ 1.000000E02, 2.839883E02
$$ 1.000000E02, 2.821966E02
$$ 1.000000E02, 2.804106E02
$$ 1.000000E02, 2.786302E02
$$ 1.000000E02, 2.768555E02
$$ 1.000000E02, 2.750864E02
$$ 1.000000E02, 2.733231E02
$$ 1.000000E02, 2.715654E02
$$ 1.000000E02, 2.698133E02
$$ 1.000000E02, 2.680670E02
$$ 1.000000E02, 2.663263E02
$$ 1.000000E02, 2.645913E02
$$ 1.000000E02, 2.628619E02
$$ 1.000000E02, 2.611382E02
$$ 1.000000E02, 2.594202E02
$$ 1.000000E02, 2.577079E02
$$ 1.000000E02, 2.560012E02
$$ 1.000000E02, 2.543002E02
$$ 1.000000E02, 2.526049E02
$$ 1.000000E02, 2.509152E02
$$ 1.000000E02, 2.492312E02
$$ 1.000000E02, 2.475529E02
$$ 1.000000E02, 2.458803E02
$$ 1.000000E02, 2.442133E02
$$ 1.000000E02, 2.425520E02
$$ 1.000000E02, 2.408963E02
$$ 1.000000E02, 2.392464E02
$$ 1.000000E02, 2.376021E02
$$ 1.000000E02, 2.359634E02
$$ 1.000000E02, 2.343305E02
$$ 1.000000E02, 2.327032E02
$$ 1.000000E02, 2.310816E02
$$ 1.000000E02, 2.294656E02
$$ 1.000000E02, 2.278553E02
$$ 1.000000E02, 2.262507E02
$$ 1.000000E02, 2.246518E02
$$ 1.000000E02, 2.230585E02
$$ 1.000000E02, 2.214709E02
$$ 1.000000E02, 2.198890E02
$$ 1.000000E02, 2.183127E02
$$ 1.000000E02, 2.167421E02
$$ 1.000000E02, 2.151772E02
$$ 1.000000E02, 2.136180E02
$$ 1.000000E02, 2.120644E02
$$ 1.000000E02, 2.105165E02
$$ 1.000000E02, 2.089742E02
$$ 1.000000E02, 2.074377E02
$$ 1.000000E02, 2.059068E02
$$ 1.000000E02, 2.043815E02
$$ 1.000000E02, 2.028620E02
$$ 1.000000E02, 2.013481E02
$$ 1.000000E02, 1.998399E02
$$ 1.000000E02, 1.983373E02
$$ 1.000000E02, 1.968404E02
$$ 1.000000E02, 1.953492E02
$$ 1.000000E02, 1.938637E02
$$ 1.000000E02, 1.923838E02
$$ 1.000000E02, 1.909096E02
$$ 1.000000E02, 1.894411E02
$$ 1.000000E02, 1.879782E02
$$ 1.000000E02, 1.865210E02
$$ 1.000000E02, 1.850695E02
$$ 1.000000E02, 1.836237E02
$$ 1.000000E02, 1.821835E02
$$ 1.000000E02, 1.807490E02
$$ 1.000000E02, 1.793201E02
$$ 1.000000E02, 1.778970E02
$$ 1.000000E02, 1.764795E02
$$ 1.000000E02, 1.750676E02
$$ 1.000000E02, 1.736615E02
$$ 1.000000E02, 1.722610E02
$$ 1.000000E02, 1.708662E02
$$ 1.000000E02, 1.694770E02
$$ 1.000000E02, 1.680935E02
$$ 1.000000E02, 1.667157E02
$$ 1.000000E02, 1.653436E02
$$ 1.000000E02, 1.639771E02
$$ 1.000000E02, 1.626163E02
$$ 1.000000E02, 1.612612E02
$$ 1.000000E02, 1.599117E02
$$ 1.000000E02, 1.585679E02
$$ 1.000000E02, 1.572298E02
$$ 1.000000E02, 1.558974E02
$$ 1.000000E02, 1.545706E02
$$ 1.000000E02, 1.532495E02
$$ 1.000000E02, 1.519340E02
$$ 1.000000E02, 1.506243E02
$$ 1.000000E02, 1.493202E02
$$ 1.000000E02, 1.480217E02
$$ 1.000000E02, 1.467290E02
$$ 1.000000E02, 1.454419E02
$$ 1.000000E02, 1.441605E02
$$ 1.000000E02, 1.428847E02
$$ 1.000000E02, 1.416146E02
$$ 1.000000E02, 1.403502E02
$$ 1.000000E02, 1.390915E02
$$ 1.000000E02, 1.378384E02
$$ 1.000000E02, 1.365910E02
$$ 1.000000E02, 1.353493E02
$$ 1.000000E02, 1.341132E02
$$ 1.000000E02, 1.328828E02
$$ 1.000000E02, 1.316581E02
$$ 1.000000E02, 1.304391E02
$$ 1.000000E02, 1.292257E02
$$ 1.000000E02, 1.280180E02
$$ 1.000000E02, 1.268159E02
$$ 1.000000E02, 1.256196E02
$$ 1.000000E02, 1.244289E02
$$ 1.000000E02, 1.232438E02
$$ 1.000000E02, 1.220645E02
$$ 1.000000E02, 1.208908E02
$$ 1.000000E02, 1.197228E02
$$ 1.000000E02, 1.185604E02
$$ 1.000000E02, 1.174037E02
$$ 1.000000E02, 1.162527E02
$$ 1.000000E02, 1.151074E02
$$ 1.000000E02, 1.139677E02
$$ 1.000000E02, 1.128337E02
$$ 1.000000E02, 1.117054E02
$$ 1.000000E02, 1.105827E02
$$ 1.000000E02, 1.094657E02
$$ 1.000000E02, 1.083544E02
$$ 1.000000E02, 1.072488E02
$$ 1.000000E02, 1.061488E02
$$ 1.000000E02, 1.050545E02
$$ 1.000000E02, 1.039658E02
$$ 1.000000E02, 1.028829E02
$$ 1.000000E02, 1.018056E02
$$ 1.000000E02, 1.007339E02
$$ 1.000000E02, 9.966797E01
$$ 1.000000E02, 9.860768E01
$$ 1.000000E02, 9.755306E01
$$ 1.000000E02, 9.650411E01
$$ 1.000000E02, 9.546083E01
$$ 1.000000E02, 9.442322E01
$$ 1.000000E02, 9.339128E01
$$ 1.000000E02, 9.236501E01
$$ 1.000000E02, 9.134441E01
$$ 1.000000E02, 9.032948E01
$$ 1.000000E02, 8.932022E01
$$ 1.000000E02, 8.831663E01
$$ 1.000000E02, 8.731871E01
$$ 1.000000E02, 8.632646E01
$$ 1.000000E02, 8.533988E01
$$ 1.000000E02, 8.435897E01
$$ 1.000000E02, 8.338373E01
$$ 1.000000E02, 8.241416E01
$$ 1.000000E02, 8.145026E01
$$ 1.000000E02, 8.049203E01
$$ 1.000000E02, 7.953947E01
$$ 1.000000E02, 7.859258E01
$$ 1.000000E02, 7.765136E01
$$ 1.000000E02, 7.671581E01
$$ 1.000000E02, 7.578593E01
$$ 1.000000E02, 7.486172E01
$$ 1.000000E02, 7.394318E01
$$ 1.000000E02, 7.303031E01
$$ 1.000000E02, 7.212311E01
$$ 1.000000E02, 7.122158E01
$$ 1.000000E02, 7.032572E01
$$ 1.000000E02, 6.943553E01
$$ 1.000000E02, 6.855101E01
$$ 1.000000E02, 6.767216E01
$$ 1.000000E02, 6.679898E01
$$ 1.000000E02, 6.593147E01
$$ 1.000000E02, 6.506963E01
$$ 1.000000E02, 6.421346E01
$$ 1.000000E02, 6.336296E01
$$ 1.000000E02, 6.251813E01
$$ 1.000000E02, 6.167897E01
$$ 1.000000E02, 6.084548E01
$$ 1.000000E02, 6.001766E01
$$ 1.000000E02, 5.919551E01
$$ 1.000000E02, 5.837903E01
$$ 1.000000E02, 5.756822E01
$$ 1.000000E02, 5.676308E01
$$ 1.000000E02, 5.596361E01
$$ 1.000000E02, 5.516981E01
$$ 1.000000E02, 5.438168E01
$$ 1.000000E02, 5.359922E01
$$ 1.000000E02, 5.282243E01
$$ 1.000000E02, 5.205131E01
$$ 1.000000E02, 5.128586E01
$$ 1.000000E02, 5.052608E01
$$ 1.000000E02, 4.977197E01
$$ 1.000000E02, 4.902353E01
$$ 1.000000E02, 4.828076E01
$$ 1.000000E02, 4.754366E01
$$ 1.000000E02, 4.681223E01
$$ 1.000000E02, 4.608647E01
$$ 1.000000E02, 4.536638E01
$$ 1.000000E02, 4.465196E01
$$ 1.000000E02, 4.394321E01
$$ 1.000000E02, 4.324013E01
$$ 1.000000E02, 4.254272E01
$$ 1.000000E02, 4.185098E01
$$ 1.000000E02, 4.116491E01
$$ 1.000000E02, 4.048451E01
$$ 1.000000E02, 3.980978E01
$$ 1.000000E02, 3.914072E01
$$ 1.000000E02, 3.847733E01
$$ 1.000000E02, 3.781961E01
$$ 1.000000E02, 3.716756E01
$$ 1.000000E02, 3.652118E01
$$ 1.000000E02, 3.588047E01
$$ 1.000000E02, 3.524543E01
$$ 1.000000E02, 3.461606E01
$$ 1.000000E02, 3.399236E01
$$ 1.000000E02, 3.337433E01
$$ 1.000000E02, 3.276197E01
$$ 1.000000E02, 3.215528E01
$$ 1.000000E02, 3.155426E01
$$ 1.000000E02, 3.095891E01
$$ 1.000000E02, 3.036923E01
$$ 1.000000E02, 2.978522E01
$$ 1.000000E02, 2.920688E01
$$ 1.000000E02, 2.863421E01
$$ 1.000000E02, 2.806721E01
$$ 1.000000E02, 2.750588E01
$$ 1.000000E02, 2.695022E01
$$ 1.000000E02, 2.640023E01
$$ 1.000000E02, 2.585591E01
$$ 1.000000E02, 2.531726E01
$$ 1.000000E02, 2.478428E01
$$ 1.000000E02, 2.425697E01
$$ 1.000000E02, 2.373533E01
$$ 1.000000E02, 2.321936E01
$$ 1.000000E02, 2.270906E01
$$ 1.000000E02, 2.220443E01
$$ 1.000000E02, 2.170547E01
$$ 1.000000E02, 2.121218E01
$$ 1.000000E02, 2.072456E01
$$ 1.000000E02, 2.024261E01
$$ 1.000000E02, 1.976633E01
$$ 1.000000E02, 1.929572E01
$$ 1.000000E02, 1.883078E01
$$ 1.000000E02, 1.837151E01
$$ 1.000000E02, 1.791791E01
$$ 1.000000E02, 1.746998E01
$$ 1.000000E02, 1.702772E01
$$ 1.000000E02, 1.659113E01
$$ 1.000000E02, 1.616021E01
$$ 1.000000E02, 1.573496E01
$$ 1.000000E02, 1.531538E01
$$ 1.000000E02, 1.490147E01
$$ 1.000000E02, 1.449323E01
$$ 1.000000E02, 1.409066E01
$$ 1.000000E02, 1.369376E01
$$ 1.000000E02, 1.330253E01
$$ 1.000000E02, 1.291697E01
$$ 1.000000E02, 1.253708E01
$$ 1.000000E02, 1.216286E01
$$ 1.000000E02, 1.179431E01
$$ 1.000000E02, 1.143143E01
$$ 1.000000E02, 1.107422E01
$$ 1.000000E02, 1.072268E01
$$ 1.000000E02, 1.037681E01
$$ 1.000000E02, 1.003661E01
[...]
768 177886
767 83939
766 -144371
765 -165322
764 -256347
763 -455357
762 -396071
761 -351429
760 -195857
759 -54920
758 -167330
757 -394172
756 -420721
755 -272632
754 -48762
753 -78203
752 -343525
751 -331031
750 -30651
749 154770
748 151209
747 -86549
746 -481975
745 -294389
744 -129270
743 27509
742 -18249
741 -158656
740 -202510
739 183313
738 980712
737 958983
736 335145
735 -336837
734 -611113
733 -581608
732 -409226
731 -270116
730 -102452
729 -75458
728 192099
727 201995
726 -95362
725 -378036
724 -430401
723 -236583
722 -43023
721 -162163
720 -37344
719 65760
718 24138
717 -125558
716 22910
715 239494
714 76250
713 -307855
712 -679634
711 -492993
710 -270238
709 -7796
708 54562
707 188102
706 212942
705 185137
704 217585
703 230777
702 -56605
701 -247458
700 -237228
699 -419291
698 -575418
697 -229642
696 5874
695 44257
694 -180003
693 -235116
692 -75099
691 -301190
690 -361424
689 -192263
688 24744
687 -17742
686 -297968
685 -167356
684 30291
683 267219
682 216489
681 -71145
680 -190108
679 -115008
678 -302799
677 -510185
676 -223172
675 44643
674 -37967
673 -476067
672 -410290
671 -32800
670 196961
669 49260
668 -54714
667 -213077
666 -330510
665 -220396
664 -45145
663 -69133
662 -51855
661 -33024
660 166790
659 178470
658 196022
657 400269
656 224069
655 -8196
654 -65124
653 27671
652 97149
651 110080
650 123102
649 196553
648 140642
647 105452
646 86981
645 42816
644 -11308
643 -307684
642 -143465
641 -230887
640 -303905
639 -372985
638 -411570
637 2646
636 164870
635 70811
634 36039
633 -7162
632 -130352
631 -328615
630 -375849
629 -126176
628 -40013
627 154374
626 238849
625 -13630
624 -237160
623 -342186
622 -110183
621 126642
620 180152
619 194148
618 139190
617 226611
616 217019
615 352957
614 200305
613 85855
612 294227
611 567970
610 428103
609 106489
608 104837
607 136645
606 -21399
605 -240754
604 -242539
603 7239
602 -20686
601 -135099
600 -127748
599 -37888
598 -89122
597 -51963
596 346
595 -123234
594 -426785
593 -288472
592 27140
591 65212
590 -117824
589 -118624
588 281927
587 780501
586 415728
585 257778
584 352738
583 228165
582 -34692
581 109892
580 131590
579 -7878
578 -55755
577 -239095
576 -596094
575 -782720
574 -737381
573 -220180
572 -24032
571 -19081
570 -12741
569 -103055
568 -344603
567 -93178
566 -98541
565 -151857
564 250880
563 471887
562 242877
561 -219483
560 -217616
559 -426586
558 -149440
557 89049
556 281635
555 470870
554 444294
553 276441
552 394872
551 252650
550 142407
549 -106730
548 -79382
547 195067
546 259747
545 18014
544 -74726
543 -7700
542 224033
541 -31488
540 -53349
539 133707
538 264680
537 -67152
536 -321868
535 173435
534 759301
533 382523
532 -198211
531 -128231
530 142562
529 571946
528 597764
527 8821
526 -497050
525 -257629
524 -223596
523 33492
522 309821
521 269853
520 -55385
519 -90467
518 147383
517 299498
516 260692
515 108993
514 165430
513 149024
512 -124787
511 -63373
510 182034
509 298655
508 287123
507 70626
506 -137152
505 -176064
504 80846
503 264007
502 175678
501 77298
500 91100
499 174208
498 305784
497 156658
496 118702
495 139927
494 123235
493 105304
492 274864
491 173953
490 -58678
489 -147051
488 -88901
487 -48347
486 142226
485 9428
484 -274721
483 -533811
482 -534137
481 -218821
480 89655
479 176543
478 210825
477 317995
476 218698
475 23749
474 87936
473 191196
472 23009
471 -307346
470 -167835
469 -179291
468 -94760
467 -27779
466 -9416
465 -52493
464 -219182
463 -345687
462 -123869
461 310392
460 389819
459 233726
458 -114811
457 -217438
456 103393
455 199343
454 194539
453 223828
452 348382
451 -2987
450 -132376
449 -65100
448 -305407
447 -545597
446 -169250
445 80172
444 -324169
443 -306554
442 314199
441 296476
440 -155963
439 -650105
438 -480700
437 -123700
436 21458
435 112315
434 123992
433 -59717
432 -311616
431 -107685
430 116532
429 50628
428 -15111
427 80080
426 273482
425 240508
424 101106
423 -95982
422 134236
421 338877
420 343979
419 333156
418 69629
417 -122115
416 -214199
415 -68584
414 -92001
413 -231224
412 -220554
411 -52313
410 125378
409 272963
408 81779
407 -256702
406 -187840
405 63866
404 161820
403 112175
402 207339
401 181878
400 216939
399 387545
398 375345
397 237580
396 -96404
395 -62788
394 80468
393 339229
392 262414
391 300346
390 258952
389 36507
388 -368954
387 -789827
386 -838787
385 -558029
384 -334203
383 -337131
382 -314505
381 -173804
380 -6558
379 5634
378 -64561
377 -42093
376 259670
375 601229
374 431739
373 265034
372 505434
371 502436
370 42760
369 -354611
368 -373259
367 -205431
366 23403
365 -974
364 -199885
363 -159414
362 2895
361 257193
360 597790
359 1092091
358 505527
357 201662
356 -30905
355 -294125
354 -280357
353 -353324
352 -121829
351 70233
350 91126
349 31772
348 -46820
347 -267918
346 -295531
345 54124
344 354925
343 85418
342 -259733
341 -230096
340 -62389
339 28298
338 108353
337 -9791
336 -58893
335 367452
334 454975
333 -30954
332 -289617
331 67925
330 143434
329 92944
328 345130
327 377945
326 -42891
325 -180602
324 164566
323 67005
322 -145585
321 -252993
320 -35274
319 499302
318 803177
317 262990
316 35309
315 -191689
314 -632996
313 -963555
312 -401687
311 -89229
310 -140835
309 -306970
308 -348872
307 -540097
306 -851216
305 -590070
304 -48954
303 37160
302 -69753
301 100732
300 403309
299 465748
298 157131
297 17402
296 19951
295 252143
294 313348
293 -46407
292 -340266
291 -364235
290 -435382
289 -254762
288 -49970
287 -219783
286 -398797
285 -72815
284 171364
283 -4164
282 -127361
281 203596
280 523272
279 105878
278 -179024
277 -232019
276 53950
275 227746
274 213297
273 -12386
272 -188773
271 -329985
270 -408640
269 -436354
268 97217
267 133745
266 -63140
265 -398445
264 -317926
263 38021
262 103913
261 243834
260 115842
259 101006
258 -77277
257 -193497
256 -36272
255 98783
254 88068
253 54842
252 -264384
251 -308002
250 -317463
249 -399493
248 -401293
247 -246642
246 -310566
245 -379950
244 -187181
243 -220626
242 -124004
241 44558
240 174374
239 238386
238 106733
237 -191473
236 -373102
235 -108958
234 44606
233 -264525
232 -353743
231 -80965
230 77140
229 -82948
228 -29774
227 -15023
226 -48946
225 -352237
224 -385516
223 -347800
222 -121041
221 -82143
220 -110859
219 -52148
218 -140036
217 -372219
216 -320687
215 75422
214 246482
213 240876
212 274873
211 -47281
210 -219289
209 -190224
208 -126045
207 111754
206 285206
205 267391
204 249503
203 95708
202 28279
201 8397
200 42155
199 50106
198 -56769
197 -26470
196 113264
195 208388
194 189168
193 -24610
192 -225074
191 -219633
190 41884
189 145353
188 8584
187 -52261
186 190174
185 400798
184 378669
183 -85292
182 -34774
181 148725
180 186186
179 119322
178 163926
177 243505
176 404771
175 334637
174 248804
173 200704
172 215432
171 167987
170 113080
169 5254
168 34717
167 217436
166 148568
165 -151371
164 -294213
163 -205471
162 187442
161 314204
160 127349
159 5576
158 -250980
157 -243921
156 -321958
155 87002
154 -64892
153 -343304
152 -152785
151 121371
150 373809
149 207531
148 -12661
147 74191
146 60544
145 -161152
144 -193690
143 -31143
142 142743
141 -87041
140 -374955
139 -402002
138 -101222
137 221886
136 513498
135 419723
134 -40106
133 -224379
132 -164223
131 117511
130 208338
129 -4134
128 -194001
127 -257054
126 71303
125 -170594
124 -332226
123 -83775
122 241537
121 211802
120 164333
119 101956
118 45244
117 82247
116 542623
115 526360
114 507491
113 487977
112 271871
111 156341
110 148719
109 260197
108 151077
107 -34115
106 399
105 -62805
104 -161399
103 153210
102 98220
101 -26016
100 -63532
99 -10365
98 -35334
97 -50165
96 -132284
95 -422070
94 -341579
93 143542
92 486950
91 400895
90 72172
89 -26145
88 -112983
87 -210803
86 5207
85 238227
84 408563
83 453069
82 224266
81 -67346
80 -232891
79 -79574
78 74124
77 39346
76 149854
75 421641
74 300658
73 127187
72 37136
71 320758
70 432466
69 15586
68 -210516
67 48409
66 -8351
65 -150675
64 -79774
63 146398
62 -43977
61 -348428
60 -348523
59 47203
58 407858
57 469704
56 51244
55 -364070
54 -582511
53 -874557
52 -317368
51 -72764
50 17758
49 105835
48 -7193
47 -162231
46 -285756
45 -305630
44 25526
43 93505
42 -20547
41 -225582
40 -392872
39 -255796
38 -106637
37 348786
36 1084486
35 423831
34 -138677
33 -470462
32 -212856
31 -29518
30 -18787
29 203067
28 256666
27 19777
26 -6798
25 83626
24 62850
23 -112058
22 -285731
21 77476
20 593684
19 463575
18 138851
17 -202798
16 -398198
15 -290826
14 -176488
13 95980
12 179193
11 193344
10 117903
9 38201
8 -84919
7 -141405
6 -140
5 250727
4 126460
3 -208444
2 -378030
1 -115097
0 -19509
##PAGE= F1=-1408.116543979
##FIRST=     25659.648401673, 4128.19602272727, -197097
##DATA TABLE= (F2++(Y..Y)), PROFILE
1023 -197097
1022 -139311
1021 -117310
1020 -245259
1019 -157043
1018 -97436
1017 -171043
1016 148459
1015 179287
1014 -76288
1013 -534070
1012 -498868
1011 -790895
1010 -714010
1009 -35425
1008 609872
1007 303549
1006 172644
1005 261926
1004 -45195
1003 114432
1002 498416
1001 704166
1000 199685
999 -71301
998 -34471
997 48899
996 67966
995 132747
994 226308
993 248773
992 210046
991 153555
990 9594
989 -75226
988 -94420
987 -298448
986 -343990
985 -107787
984 281849
983 464429
982 267776
981 42796
980 -126043
979 -342647
978 -313410
977 -174643
976 135599
975 161632
974 349405
973 393291
972 100747
971 -462680
970 -761069
969 -328320
968 158255
967 77577
966 -469388
965 -1367476
964 -429965
963 423972
962 642868
961 271655
960 -111736
959 -1178
958 237967
957 280671
956 101953
955 -111896
954 82579
953 -22465
952 -197897
951 -457531
950 -324844
949 -67397
948 -107404
947 -58501
946 372158
945 700444
944 455674
943 250491
942 219717
941 348647
940 -95255
939 -417769
938 -245925
937 -50293
936 1830
935 397921
934 651283
933 367375
932 -165297
931 -360281
930 -176749
929 -269321
928 -498926
927 -530503
926 -203663
925 144877
924 262060
923 -66308
922 -90698
921 129237
920 155515
919 -46007
918 5421
917 113273
916 -73969
915 -194933
914 106425
913 263600
912 219013
911 -23006
910 206343
909 78031
908 229337
907 213087
906 209758
905 481953
904 439716
903 290172
902 182586
901 10922
900 -79530
899 162818
898 405083
897 324173
896 -30484
895 -99729
894 -162230
893 -130548
892 -26514
891 -125759
890 -467160
889 -504014
888 -352365
887 22153
886 35290
885 -67138
884 -151121
883 -72439
882 15293
881 -44392
880 -226251
879 -347157
878 -250190
877 -133500
876 -73361
875 -6784
874 462290
873 722995
872 206926
871 -614919
870 -282787
869 -68216
868 100798
867 119836
866 73209
865 44179
864 161890
863 261141
862 416919
861 750517
860 499299
859 62899
858 -215583
857 -15525
856 251050
855 138431
854 69588
853 131255
852 91312
851 -39534
850 -149213
849 82863
848 125173
847 -41991
846 -205723
845 33752
844 262044
843 440297
842 131489
841 -35166
840 -186099
839 57795
838 111249
837 27688
836 34344
835 -92364
834 -237781
833 56324
832 -2284
831 -1097970
830 -1135660
829 74644
828 994968
827 810642
826 30619
825 -372011
824 -465256
823 -357206
822 -230412
821 153446
820 143933
819 -419371
818 -820125
817 -694904
816 -376467
815 -39064
814 129547
813 -89072
812 -467023
811 66580
810 1010291
809 762989
808 30909
807 -202743
806 -329047
805 -332719
804 -230960
803 -935
802 266856
801 403205
800 273766
799 80316
798 112954
797 86658
796 107114
795 218199
794 32059
793 -28593
792 301983
791 262236
790 -286982
789 -996104
788 -973881
787 -361047
786 36478
785 56374
784 -68107
783 28024
782 170819
781 141542
780 -7712
779 -114194
778 -16641
777 34984
776 22274
775 130300
774 256437
773 282896
772 339239
771 -200417
770 -578310
769 -365548
768 92406
767 319063
766 249073
765 89988
764 -42183
763 -272761
762 114521
761 154600
760 6829
759 -139643
758 -232440
757 -336821
756 -354197
755 -296778
754 -422760
753 -630077
752 -608615
751 -341100
750 33283
749 27756
748 -231122
747 -200151
746 -199367
745 58593
744 -83191
743 -223594
742 -256571
741 -68335
740 -22874
739 225496
738 967151
737 832054
736 -173287
735 -609894
734 -256374
733 -67123
732 -68933
731 15008
730 -51917
729 -266521
728 -1104
727 146886
726 -97067
725 -345784
724 -503806
723 -579087
722 -237804
721 47082
720 202559
719 236365
718 250236
717 81309
716 116278
715 191625
714 -227067
713 -793781
712 -856023
711 -462986
710 -161833
709 146028
708 273584
707 279785
706 296727
705 265424
704 75100
703 -219014
702 -485643
701 -491286
700 -366324
699 -628341
698 -934746
697 -542170
696 -227479
695 -152613
694 -198604
693 -248810
692 123698
691 373503
690 259110
689 154358
688 218580
687 -70707
686 -404449
685 -355943
684 -196535
683 27858
682 -3639
681 -395030
680 -642956
679 -376030
678 -184150
677 -279725
676 -311389
675 -71746
674 188418
673 27162
672 -67120
671 157595
670 428095
669 349094
668 -45157
667 -9300
666 158170
665 201302
664 260920
663 275277
662 79639
661 16659
660 303347
659 51381
658 -100208
657 98502
656 118616
655 -21908
654 -177896
653 -64450
652 118193
651 218242
650 293560
649 451481
648 448063
647 253907
646 114047
645 60264
644 -22492
643 -112256
642 275009
641 126007
640 -103067
639 -289223
638 -432157
637 -255384
636 -115886
635 88561
634 268104
633 233274
632 45239
631 -103981
630 -166098
629 154756
628 410563
627 477793
626 404227
625 75979
624 -160139
623 -383761
622 -336484
621 -144535
620 211450
619 567193
618 555756
617 336046
616 43932
615 133978
614 186114
613 142561
612 352343
611 461124
610 183887
609 -171154
608 -19770
607 185258
606 85127
605 -142845
604 -262281
603 -178457
602 -251342
601 -226689
600 -305569
599 -232354
598 -190886
597 18166
596 149072
595 49234
594 -257981
593 -463072
592 -481228
591 -261173
590 -260212
589 -239608
588 106286
587 740451
586 465250
585 158342
584 299648
583 448717
582 161615
581 226155
580 150759
579 -83079
578 -149475
577 -144720
576 -278854
575 -446576
574 -337780
573 -167592
572 -154865
571 -82342
570 143164
569 -122823
568 -794723
567 -393544
566 -82991
565 -1830
564 267024
563 221036
562 51159
561 -201739
560 17151
559 -267516
558 -123123
557 141307
556 373342
555 557170
554 341106
553 34105
552 160998
551 287697
550 -53458
549 -167546
548 -25127
547 238579
546 272787
545 77673
544 -45296
543 -116402
542 368341
541 27248
540 -204900
539 65397
538 188852
537 -314615
536 -831412
535 -491971
534 201576
533 356491
532 367457
531 337016
530 431144
529 896783
528 960802
527 405660
526 -11567
525 102706
524 -270514
523 -322321
522 -49277
521 -29193
520 -299254
519 -115921
518 335976
517 571727
516 512806
515 487734
514 588969
513 457148
512 -845
511 -17627
510 296196
509 460076
508 397660
507 -14913
506 -146907
505 34795
504 283037
503 114831
502 -143685
501 -103899
500 -79403
499 -5980
498 339552
497 366220
496 236887
495 194523
494 161750
493 95157
492 333480
491 213510
490 79069
489 112695
488 231428
487 -7638
486 -85310
485 -107305
484 -176804
483 -383157
482 -209806
481 294292
480 495359
479 268624
478 95323
477 152346
476 138009
475 -107943
474 -103621
473 125928
472 318914
471 141065
470 -77864
469 -373790
468 -213829
467 -96574
466 -58027
465 913
464 -124851
463 -303736
462 -269810
461 187361
460 341345
459 -1484
458 -429829
457 -268227
456 293387
455 601752
454 495925
453 357570
452 402472
451 22164
450 -190205
449 -165023
448 -292556
447 -400382
446 -97209
445 -11677
444 -539696
443 -726412
442 -80701
441 242756
440 -98884
439 -325150
438 -105968
437 -5326
436 -11530
435 89730
434 100187
433 -121665
432 -448831
431 -308727
430 -64141
429 -18512
428 61897
427 135696
426 144776
425 -209671
424 -280660
423 -78284
422 128204
421 124218
420 -11455
419 9121
418 -147742
417 -205246
416 -256042
415 -37868
414 -22070
413 -190155
412 -29074
411 194434
410 226871
409 220322
408 -48
407 -233904
406 -172407
405 210868
404 323155
403 192828
402 136232
401 108524
400 216959
399 489461
398 592526
397 87805
396 -601014
395 -394837
394 -61052
393 17948
392 -183290
391 -11808
390 161198
389 -40103
388 -298560
387 -534505
386 -491394
385 -416187
384 -366814
383 -295729
382 -206132
381 -221038
380 -161081
379 -43696
378 -19663
377 43207
376 297441
375 646788
374 435191
373 273609
372 483590
371 707558
370 384894
369 -199608
368 -443148
367 -188384
366 83214
365 -192134
364 -480491
363 -393518
362 -190392
361 73507
360 430247
359 943141
358 299378
357 515
356 -223528
355 -512688
354 -438255
353 -287525
352 -127087
351 -2847
350 -33144
349 -224905
348 -344459
347 -393919
346 -189378
345 92477
344 256938
343 4144
342 -401359
341 -395609
340 -64527
339 112584
338 216060
337 84688
336 -63162
335 299751
334 137368
333 -387135
332 -890158
331 -553334
330 -362967
329 -376360
328 -186864
327 15874
326 124554
325 376175
324 530341
323 105117
322 -137516
321 -104184
320 198773
319 661042
318 901421
317 251754
316 9211
315 -54187
314 -248317
313 -560334
312 -252737
311 -171764
310 -124617
309 -124588
308 -52290
307 -426858
306 -1082750
305 -1005855
304 -429392
303 -75572
302 27917
301 183012
300 328092
299 209882
298 -160581
297 -112741
296 73353
295 284260
294 356227
293 231949
292 23307
291 -176354
290 -322418
289 -184834
288 -98576
287 -41278
286 -149678
285 -42281
284 103823
283 78492
282 198135
281 556831
280 755266
279 281445
278 -169769
277 -425707
276 -165217
275 230064
274 -27484
273 -436629
272 -311266
271 8288
270 138147
269 21216
268 448785
267 169703
266 2324
265 53024
264 150433
263 267573
262 7299
261 -77208
260 -220789
259 52073
258 -20857
257 -155420
256 181518
255 286924
254 8483
253 -112908
252 -164009
251 -94352
250 -134723
249 -416327
248 -402310
247 -79496
246 -81094
245 -141963
244 13663
243 107968
242 273785
241 468081
240 571744
239 396187
238 171155
237 32632
236 104665
235 355339
234 80204
233 -459758
232 -403893
231 23098
230 99537
229 -6517
228 29109
227 -288063
226 -441299
225 -309102
224 -249336
223 -399466
222 -191242
221 4656
220 20593
219 41906
218 26602
217 -261876
216 -368705
215 59139
214 158398
213 51036
212 -32010
211 -292569
210 -333709
209 -287991
208 -231103
207 -70071
206 16302
205 134967
204 143645
203 -72048
202 -86013
201 -762
200 261673
199 177890
198 -304614
197 -341345
196 -3689
195 129179
194 -10117
193 -85131
192 4794
191 178899
190 303574
189 251701
188 120798
187 42625
186 86967
185 176349
184 313746
183 -32497
182 174035
181 213969
180 126753
179 61718
178 206307
177 356751
176 532698
175 383884
174 183709
173 165855
172 276972
171 251605
170 235598
169 81580
168 38535
167 69028
166 -34049
165 -308276
164 -248262
163 30158
162 319445
161 331572
160 63516
159 -286654
158 -336040
157 -52051
156 -87944
155 120515
154 -71122
153 -174795
152 -121047
151 66855
150 259561
149 62799
148 -233057
147 -162058
146 -26633
145 -41750
144 90233
143 377663
142 508936
141 189471
140 -130192
139 42441
138 382179
137 511916
136 470260
135 242321
134 -128278
133 -235565
132 -246585
131 -145923
130 41043
129 45131
128 -2121
127 -5512
126 208327
125 126703
124 -102263
123 -70862
122 138223
121 448618
120 419077
119 117054
118 -170568
117 -203824
116 142964
115 361605
114 469675
113 552823
112 415041
111 152521
110 -193305
109 -121587
108 -56944
107 -151234
106 -146235
105 -239803
104 -220583
103 248977
102 166508
101 -107356
100 -159341
99 -76769
98 -155455
97 -114800
96 66340
95 -153910
94 -420641
93 -44371
92 151633
91 -157975
90 -450667
89 -170151
88 -18386
87 -86773
86 52442
85 273715
84 568217
83 723494
82 387581
81 -95047
80 -253104
79 -140560
78 -84315
77 68385
76 408016
75 184999
74 164754
73 -31145
72 -271208
71 -234785
70 -155040
69 -383544
68 -193593
67 41255
66 -149583
65 -256545
64 -179476
63 121886
62 113134
61 -177865
60 -238465
59 -75787
58 56536
57 313466
56 266073
55 -91153
54 -463665
53 -757310
52 -674463
51 -376861
50 -22824
49 299036
48 470706
47 264355
46 -120509
45 -510421
44 -434989
43 -451954
42 -461635
41 -362905
40 -389013
39 -374434
38 -76066
37 229045
36 990687
35 550782
34 192328
33 128806
32 103266
31 -93038
30 -82459
29 343832
28 498852
27 226418
26 231728
25 449648
24 296436
23 -31746
22 -129793
21 219231
20 861834
19 622255
18 20144
17 -407944
16 -450124
15 78206
14 436508
13 394581
12 30015
11 -74741
10 -228691
9 -256157
8 -74661
7 -26884
6 20810
5 164275
4 114348
3 -147522
2 -277754
1 -124580
0 -133285
##END NTUPLES=nD NMR SPECTRUM
##END=
